MODEL 1
REMARK VINA RESULT:    -2.933      0.000      0.000
REMARK INTER + INTRA:          -3.602
REMARK INTER:                  -3.447
REMARK INTRA:                  -0.155
REMARK UNBOUND:                -0.155
REMARK  Name = C:\Users\Bellamkonda Sowmya\OneDrive\Desktop\LIGBIND AI\authml\authml\backend\results\ligand_1766683046881.pdb
REMARK  6 active torsions:
REMARK  status: ('A' for Active; 'I' for Inactive)
REMARK    1  A    between atoms: C_1  and  C_2
REMARK    2  A    between atoms: C_2  and  N_3
REMARK    3  A    between atoms: N_3  and  C_4
REMARK    4  A    between atoms: N_3  and  C_6
REMARK    5  A    between atoms: C_4  and  C_5
REMARK    6  A    between atoms: C_6  and  C_7
REMARK                            x       y       z     vdW  Elec       q    Type
REMARK                         _______ _______ _______ _____ _____    ______ ____
ROOT
ATOM      1  N   UNL     1      -4.526  -3.285   2.174  0.00  0.00    +0.000 NA
ENDROOT
BRANCH   1   3
ATOM      2  C   UNL     1      -5.930  -1.319   2.825  0.00  0.00    +0.000 C 
ATOM      3  C   UNL     1      -4.614  -1.819   2.242  0.00  0.00    +0.000 C 
ENDBRANCH   1   3
BRANCH   1   4
ATOM      4  C   UNL     1      -4.097  -3.798   0.859  0.00  0.00    +0.000 C 
ATOM      5  C   UNL     1      -3.444  -5.176   0.838  0.00  0.00    +0.000 C 
ENDBRANCH   1   4
BRANCH   1   6
ATOM      6  C   UNL     1      -3.716  -3.859   3.260  0.00  0.00    +0.000 C 
ATOM      7  C   UNL     1      -2.625  -2.913   3.754  0.00  0.00    +0.000 C 
ENDBRANCH   1   6
TORSDOF 3
ENDMDL
