MODEL 1
REMARK VINA RESULT:    -2.935      0.000      0.000
REMARK INTER + INTRA:          -3.605
REMARK INTER:                  -3.450
REMARK INTRA:                  -0.155
REMARK UNBOUND:                -0.155
REMARK  Name = C:\Users\Bellamkonda Sowmya\OneDrive\Desktop\2nd yr notes\ps1\authml\authml\backend\results\ligand_1764589689545.pdb
REMARK  6 active torsions:
REMARK  status: ('A' for Active; 'I' for Inactive)
REMARK    1  A    between atoms: C_1  and  C_2
REMARK    2  A    between atoms: C_2  and  N_3
REMARK    3  A    between atoms: N_3  and  C_4
REMARK    4  A    between atoms: N_3  and  C_6
REMARK    5  A    between atoms: C_4  and  C_5
REMARK    6  A    between atoms: C_6  and  C_7
REMARK                            x       y       z     vdW  Elec       q    Type
REMARK                         _______ _______ _______ _____ _____    ______ ____
ROOT
ATOM      1  N   UNL     1      -4.500  -3.268   2.210  0.00  0.00    +0.000 NA
ENDROOT
BRANCH   1   3
ATOM      2  C   UNL     1      -5.926  -1.320   2.871  0.00  0.00    +0.000 C 
ATOM      3  C   UNL     1      -4.576  -1.805   2.353  0.00  0.00    +0.000 C 
ENDBRANCH   1   3
BRANCH   1   4
ATOM      4  C   UNL     1      -4.188  -3.722   0.844  0.00  0.00    +0.000 C 
ATOM      5  C   UNL     1      -3.494  -5.076   0.713  0.00  0.00    +0.000 C 
ENDBRANCH   1   4
BRANCH   1   6
ATOM      6  C   UNL     1      -3.602  -3.885   3.200  0.00  0.00    +0.000 C 
ATOM      7  C   UNL     1      -2.609  -2.895   3.803  0.00  0.00    +0.000 C 
ENDBRANCH   1   6
TORSDOF 3
ENDMDL
