MODEL 1
REMARK VINA RESULT:    -2.948      0.000      0.000
REMARK INTER + INTRA:          -3.618
REMARK INTER:                  -3.465
REMARK INTRA:                  -0.154
REMARK UNBOUND:                -0.154
REMARK  Name = C:\DDRIVE\PROJECT\RMPRF\authml\backend\results\ligand_1764561585704.pdb
REMARK  6 active torsions:
REMARK  status: ('A' for Active; 'I' for Inactive)
REMARK    1  A    between atoms: C_1  and  C_2
REMARK    2  A    between atoms: C_2  and  N_3
REMARK    3  A    between atoms: N_3  and  C_4
REMARK    4  A    between atoms: N_3  and  C_6
REMARK    5  A    between atoms: C_4  and  C_5
REMARK    6  A    between atoms: C_6  and  C_7
REMARK                            x       y       z     vdW  Elec       q    Type
REMARK                         _______ _______ _______ _____ _____    ______ ____
ROOT
ATOM      1  N   UNL     1      -4.506  -3.263   2.176  0.00  0.00    +0.000 NA
ENDROOT
BRANCH   1   3
ATOM      2  C   UNL     1      -5.899  -1.309   2.886  0.00  0.00    +0.000 C 
ATOM      3  C   UNL     1      -4.594  -1.798   2.269  0.00  0.00    +0.000 C 
ENDBRANCH   1   3
BRANCH   1   4
ATOM      4  C   UNL     1      -4.074  -3.755   0.856  0.00  0.00    +0.000 C 
ATOM      5  C   UNL     1      -3.438  -5.143   0.816  0.00  0.00    +0.000 C 
ENDBRANCH   1   4
BRANCH   1   6
ATOM      6  C   UNL     1      -3.698  -3.852   3.256  0.00  0.00    +0.000 C 
ATOM      7  C   UNL     1      -2.611  -2.909   3.768  0.00  0.00    +0.000 C 
ENDBRANCH   1   6
TORSDOF 3
ENDMDL
