MODEL 1
REMARK VINA RESULT:    -2.937      0.000      0.000
REMARK INTER + INTRA:          -3.605
REMARK INTER:                  -3.452
REMARK INTRA:                  -0.153
REMARK UNBOUND:                -0.153
REMARK  Name = C:\DDRIVE\PROJECT\rmpr\authml\backend\results\ligand_1764517713025.pdb
REMARK  6 active torsions:
REMARK  status: ('A' for Active; 'I' for Inactive)
REMARK    1  A    between atoms: C_1  and  C_2
REMARK    2  A    between atoms: C_2  and  N_3
REMARK    3  A    between atoms: N_3  and  C_4
REMARK    4  A    between atoms: N_3  and  C_6
REMARK    5  A    between atoms: C_4  and  C_5
REMARK    6  A    between atoms: C_6  and  C_7
REMARK                            x       y       z     vdW  Elec       q    Type
REMARK                         _______ _______ _______ _____ _____    ______ ____
ROOT
ATOM      1  N   UNL     1      -4.484  -3.265   2.151  0.00  0.00    +0.000 NA
ENDROOT
BRANCH   1   3
ATOM      2  C   UNL     1      -5.919  -1.342   2.851  0.00  0.00    +0.000 C 
ATOM      3  C   UNL     1      -4.570  -1.805   2.307  0.00  0.00    +0.000 C 
ENDBRANCH   1   3
BRANCH   1   4
ATOM      4  C   UNL     1      -4.185  -3.705   0.775  0.00  0.00    +0.000 C 
ATOM      5  C   UNL     1      -3.504  -5.062   0.618  0.00  0.00    +0.000 C 
ENDBRANCH   1   4
BRANCH   1   6
ATOM      6  C   UNL     1      -3.571  -3.891   3.122  0.00  0.00    +0.000 C 
ATOM      7  C   UNL     1      -2.610  -2.889   3.765  0.00  0.00    +0.000 C 
ENDBRANCH   1   6
TORSDOF 3
ENDMDL
