MODEL 1
REMARK VINA RESULT:    -6.853      0.000      0.000
REMARK INTER + INTRA:          -8.986
REMARK INTER:                  -8.456
REMARK INTRA:                  -0.530
REMARK UNBOUND:                -0.530
REMARK  Name = C:\Users\Bellamkonda Sowmya\OneDrive\Desktop\LIGBIND AI\authml\authml\backend\results\ligand_1765167365485.pdb
REMARK  4 active torsions:
REMARK  status: ('A' for Active; 'I' for Inactive)
REMARK    1  A    between atoms: S_2  and  N_4
REMARK    2  A    between atoms: S_2  and  C_21
REMARK    3  A    between atoms: N_4  and  C_5
REMARK    4  A    between atoms: C_9  and  C_10
REMARK                            x       y       z     vdW  Elec       q    Type
REMARK                         _______ _______ _______ _____ _____    ______ ____
ROOT
ATOM      1  C   UNL     1      -2.804  -6.529  -0.789  0.00  0.00    +0.000 A 
ATOM      2  C   UNL     1      -3.032  -7.866  -1.159  0.00  0.00    +0.000 A 
ATOM      3  C   UNL     1      -3.087  -8.238  -2.494  0.00  0.00    +0.000 A 
ATOM      4  C   UNL     1      -2.929  -7.286  -3.477  0.00  0.00    +0.000 A 
ATOM      5  C   UNL     1      -2.673  -6.017  -3.119  0.00  0.00    +0.000 A 
ATOM      6  C   UNL     1      -2.623  -5.961  -1.979  0.00  0.00    +0.000 A 
ENDROOT
BRANCH   5   7
ATOM      7  C   UNL     1      -2.480  -4.850  -4.073  0.00  0.00    +0.000 A 
ATOM      8  C   UNL     1       0.010  -6.176  -8.605  0.00  0.00    +0.000 A 
ATOM      9  N   UNL     1      -0.712  -5.864  -7.456  0.00  0.00    +0.000 NA
ATOM     10  C   UNL     1      -0.979  -4.535  -7.141  0.00  0.00    +0.000 A 
ATOM     11  C   UNL     1      -0.622  -3.363  -7.831  0.00  0.00    +0.000 A 
ATOM     12  C   UNL     1      -1.040  -2.116  -7.388  0.00  0.00    +0.000 A 
ATOM     13  C   UNL     1      -1.830  -2.020  -6.264  0.00  0.00    +0.000 A 
ATOM     14  C   UNL     1      -2.136  -3.138  -5.586  0.00  0.00    +0.000 A 
ATOM     15  C   UNL     1      -1.643  -4.028  -6.104  0.00  0.00    +0.000 A 
ATOM     16  N   UNL     1      -1.810  -5.039  -5.279  0.00  0.00    +0.000 NA
ENDBRANCH   5   7
BRANCH   1  17
ATOM     17  N   UNL     1      -2.701  -6.021   0.588  0.00  0.00    +0.000 N 
ATOM     18  H   UNL     1      -1.794  -5.987   1.052  0.00  0.00    +0.000 HD
BRANCH  17  20
ATOM     19  O   UNL     1      -5.219  -5.092   0.412  0.00  0.00    +0.000 OA
ATOM     20  S   UNL     1      -4.144  -5.471   1.432  0.00  0.00    +0.000 S 
ATOM     21  O   UNL     1      -4.667  -6.594   2.332  0.00  0.00    +0.000 OA
BRANCH  20  22
ATOM     22  C   UNL     1      -3.736  -4.028   2.446  0.00  0.00    +0.000 A 
ATOM     23  C   UNL     1      -3.997  -2.577   2.993  0.00  0.00    +0.000 A 
ATOM     24  C   UNL     1      -2.696  -2.964   3.724  0.00  0.00    +0.000 A 
ATOM     25  C   UNL     1      -2.696  -2.964   3.724  0.00  0.00    +0.000 A 
ATOM     26  S   UNL     1      -2.696  -2.964   3.724  0.00  0.00    +0.000 S 
ENDBRANCH  20  22
ENDBRANCH  17  20
ENDBRANCH   1  17
TORSDOF 4
ENDMDL
