MODEL 1
REMARK VINA RESULT:    -3.117      0.000      0.000
REMARK INTER + INTRA:          -3.812
REMARK INTER:                  -3.664
REMARK INTRA:                  -0.147
REMARK UNBOUND:                -0.147
REMARK  Name = results/663de924-5951-4d78-a24f-2e7158d306ab_ligand.pdb
REMARK  6 active torsions:
REMARK  status: ('A' for Active; 'I' for Inactive)
REMARK    1  A    between atoms: C1_1  and  C2_2
REMARK    2  A    between atoms: C2_2  and  N1_3
REMARK    3  A    between atoms: N1_3  and  C3_4
REMARK    4  A    between atoms: N1_3  and  C5_6
REMARK    5  A    between atoms: C3_4  and  C4_5
REMARK    6  A    between atoms: C5_6  and  C6_7
REMARK                            x       y       z     vdW  Elec       q    Type
REMARK                         _______ _______ _______ _____ _____    ______ ____
ROOT
ATOM      1  N1  UNL     1       5.666   2.724   5.210  0.00  0.00    +0.000 NA
ENDROOT
BRANCH   1   3
ATOM      2  C1  UNL     1       3.261   2.240   5.044  0.00  0.00    +0.000 C 
ATOM      3  C2  UNL     1       4.633   1.999   4.426  0.00  0.00    +0.000 C 
ENDBRANCH   1   3
BRANCH   1   4
ATOM      4  C3  UNL     1       5.578   4.189   5.015  0.00  0.00    +0.000 C 
ATOM      5  C4  UNL     1       5.481   4.918   6.355  0.00  0.00    +0.000 C 
ENDBRANCH   1   4
BRANCH   1   6
ATOM      6  C5  UNL     1       7.031   2.242   4.898  0.00  0.00    +0.000 C 
ATOM      7  C6  UNL     1       7.001   0.802   4.388  0.00  0.00    +0.000 C 
ENDBRANCH   1   6
TORSDOF 3
ENDMDL
MODEL 2
REMARK VINA RESULT:    -3.091      0.130      3.206
REMARK INTER + INTRA:          -3.780
REMARK INTER:                  -3.625
REMARK INTRA:                  -0.155
REMARK UNBOUND:                -0.147
REMARK  Name = results/663de924-5951-4d78-a24f-2e7158d306ab_ligand.pdb
REMARK  6 active torsions:
REMARK  status: ('A' for Active; 'I' for Inactive)
REMARK    1  A    between atoms: C1_1  and  C2_2
REMARK    2  A    between atoms: C2_2  and  N1_3
REMARK    3  A    between atoms: N1_3  and  C3_4
REMARK    4  A    between atoms: N1_3  and  C5_6
REMARK    5  A    between atoms: C3_4  and  C4_5
REMARK    6  A    between atoms: C5_6  and  C6_7
REMARK                            x       y       z     vdW  Elec       q    Type
REMARK                         _______ _______ _______ _____ _____    ______ ____
ROOT
ATOM      1  N1  UNL     1       5.637   2.769   5.289  0.00  0.00    +0.000 NA
ENDROOT
BRANCH   1   3
ATOM      2  C1  UNL     1       5.488   4.947   6.419  0.00  0.00    +0.000 C 
ATOM      3  C2  UNL     1       5.594   4.239   5.074  0.00  0.00    +0.000 C 
ENDBRANCH   1   3
BRANCH   1   4
ATOM      4  C3  UNL     1       6.981   2.212   5.014  0.00  0.00    +0.000 C 
ATOM      5  C4  UNL     1       6.895   0.738   4.617  0.00  0.00    +0.000 C 
ENDBRANCH   1   4
BRANCH   1   6
ATOM      6  C5  UNL     1       4.612   2.066   4.483  0.00  0.00    +0.000 C 
ATOM      7  C6  UNL     1       3.215   2.279   5.067  0.00  0.00    +0.000 C 
ENDBRANCH   1   6
TORSDOF 3
ENDMDL
MODEL 3
REMARK VINA RESULT:    -3.089      1.653      3.040
REMARK INTER + INTRA:          -3.778
REMARK INTER:                  -3.576
REMARK INTRA:                  -0.202
REMARK UNBOUND:                -0.147
REMARK  Name = results/663de924-5951-4d78-a24f-2e7158d306ab_ligand.pdb
REMARK  6 active torsions:
REMARK  status: ('A' for Active; 'I' for Inactive)
REMARK    1  A    between atoms: C1_1  and  C2_2
REMARK    2  A    between atoms: C2_2  and  N1_3
REMARK    3  A    between atoms: N1_3  and  C3_4
REMARK    4  A    between atoms: N1_3  and  C5_6
REMARK    5  A    between atoms: C3_4  and  C4_5
REMARK    6  A    between atoms: C5_6  and  C6_7
REMARK                            x       y       z     vdW  Elec       q    Type
REMARK                         _______ _______ _______ _____ _____    ______ ____
ROOT
ATOM      1  N1  UNL     1       6.852   2.517   4.762  0.00  0.00    +0.000 NA
ENDROOT
BRANCH   1   3
ATOM      2  C1  UNL     1       4.945   3.480   3.545  0.00  0.00    +0.000 C 
ATOM      3  C2  UNL     1       6.147   3.783   4.431  0.00  0.00    +0.000 C 
ENDBRANCH   1   3
BRANCH   1   4
ATOM      4  C3  UNL     1       6.007   1.331   4.494  0.00  0.00    +0.000 C 
ATOM      5  C4  UNL     1       6.770   0.037   4.780  0.00  0.00    +0.000 C 
ENDBRANCH   1   4
BRANCH   1   6
ATOM      6  C5  UNL     1       7.330   2.505   6.164  0.00  0.00    +0.000 C 
ATOM      7  C6  UNL     1       6.217   2.917   7.126  0.00  0.00    +0.000 C 
ENDBRANCH   1   6
TORSDOF 3
ENDMDL
MODEL 4
REMARK VINA RESULT:    -3.081      1.652      2.680
REMARK INTER + INTRA:          -3.769
REMARK INTER:                  -3.570
REMARK INTRA:                  -0.200
REMARK UNBOUND:                -0.147
REMARK  Name = results/663de924-5951-4d78-a24f-2e7158d306ab_ligand.pdb
REMARK  6 active torsions:
REMARK  status: ('A' for Active; 'I' for Inactive)
REMARK    1  A    between atoms: C1_1  and  C2_2
REMARK    2  A    between atoms: C2_2  and  N1_3
REMARK    3  A    between atoms: N1_3  and  C3_4
REMARK    4  A    between atoms: N1_3  and  C5_6
REMARK    5  A    between atoms: C3_4  and  C4_5
REMARK    6  A    between atoms: C5_6  and  C6_7
REMARK                            x       y       z     vdW  Elec       q    Type
REMARK                         _______ _______ _______ _____ _____    ______ ____
ROOT
ATOM      1  N1  UNL     1       6.883   2.520   4.691  0.00  0.00    +0.000 NA
ENDROOT
BRANCH   1   3
ATOM      2  C1  UNL     1       6.897   0.061   4.726  0.00  0.00    +0.000 C 
ATOM      3  C2  UNL     1       6.123   1.303   4.302  0.00  0.00    +0.000 C 
ENDBRANCH   1   3
BRANCH   1   4
ATOM      4  C3  UNL     1       7.318   2.468   6.105  0.00  0.00    +0.000 C 
ATOM      5  C4  UNL     1       6.205   2.944   7.040  0.00  0.00    +0.000 C 
ENDBRANCH   1   4
BRANCH   1   6
ATOM      6  C5  UNL     1       6.110   3.757   4.432  0.00  0.00    +0.000 C 
ATOM      7  C6  UNL     1       4.920   3.478   3.514  0.00  0.00    +0.000 C 
ENDBRANCH   1   6
TORSDOF 3
ENDMDL
MODEL 5
REMARK VINA RESULT:    -3.080      0.244      3.245
REMARK INTER + INTRA:          -3.768
REMARK INTER:                  -3.615
REMARK INTRA:                  -0.153
REMARK UNBOUND:                -0.147
REMARK  Name = results/663de924-5951-4d78-a24f-2e7158d306ab_ligand.pdb
REMARK  6 active torsions:
REMARK  status: ('A' for Active; 'I' for Inactive)
REMARK    1  A    between atoms: C1_1  and  C2_2
REMARK    2  A    between atoms: C2_2  and  N1_3
REMARK    3  A    between atoms: N1_3  and  C3_4
REMARK    4  A    between atoms: N1_3  and  C5_6
REMARK    5  A    between atoms: C3_4  and  C4_5
REMARK    6  A    between atoms: C5_6  and  C6_7
REMARK                            x       y       z     vdW  Elec       q    Type
REMARK                         _______ _______ _______ _____ _____    ______ ____
ROOT
ATOM      1  N1  UNL     1       5.646   2.850   5.387  0.00  0.00    +0.000 NA
ENDROOT
BRANCH   1   3
ATOM      2  C1  UNL     1       7.091   1.079   4.482  0.00  0.00    +0.000 C 
ATOM      3  C2  UNL     1       7.047   2.498   5.035  0.00  0.00    +0.000 C 
ENDBRANCH   1   3
BRANCH   1   4
ATOM      4  C3  UNL     1       4.667   2.039   4.628  0.00  0.00    +0.000 C 
ATOM      5  C4  UNL     1       3.235   2.364   5.056  0.00  0.00    +0.000 C 
ENDBRANCH   1   4
BRANCH   1   6
ATOM      6  C5  UNL     1       5.379   4.295   5.197  0.00  0.00    +0.000 C 
ATOM      7  C6  UNL     1       5.444   5.044   6.528  0.00  0.00    +0.000 C 
ENDBRANCH   1   6
TORSDOF 3
ENDMDL
MODEL 6
REMARK VINA RESULT:    -3.060      1.655      2.414
REMARK INTER + INTRA:          -3.744
REMARK INTER:                  -3.542
REMARK INTRA:                  -0.202
REMARK UNBOUND:                -0.147
REMARK  Name = results/663de924-5951-4d78-a24f-2e7158d306ab_ligand.pdb
REMARK  6 active torsions:
REMARK  status: ('A' for Active; 'I' for Inactive)
REMARK    1  A    between atoms: C1_1  and  C2_2
REMARK    2  A    between atoms: C2_2  and  N1_3
REMARK    3  A    between atoms: N1_3  and  C3_4
REMARK    4  A    between atoms: N1_3  and  C5_6
REMARK    5  A    between atoms: C3_4  and  C4_5
REMARK    6  A    between atoms: C5_6  and  C6_7
REMARK                            x       y       z     vdW  Elec       q    Type
REMARK                         _______ _______ _______ _____ _____    ______ ____
ROOT
ATOM      1  N1  UNL     1       6.903   2.460   4.754  0.00  0.00    +0.000 NA
ENDROOT
BRANCH   1   3
ATOM      2  C1  UNL     1       6.390   3.102   7.071  0.00  0.00    +0.000 C 
ATOM      3  C2  UNL     1       7.352   2.342   6.166  0.00  0.00    +0.000 C 
ENDBRANCH   1   3
BRANCH   1   4
ATOM      4  C3  UNL     1       6.180   3.729   4.510  0.00  0.00    +0.000 C 
ATOM      5  C4  UNL     1       4.964   3.505   3.610  0.00  0.00    +0.000 C 
ENDBRANCH   1   4
BRANCH   1   6
ATOM      6  C5  UNL     1       6.073   1.304   4.343  0.00  0.00    +0.000 C 
ATOM      7  C6  UNL     1       6.627  -0.000   4.916  0.00  0.00    +0.000 C 
ENDBRANCH   1   6
TORSDOF 3
ENDMDL
MODEL 7
REMARK VINA RESULT:    -2.897      1.477      3.382
REMARK INTER + INTRA:          -3.552
REMARK INTER:                  -3.376
REMARK INTRA:                  -0.176
REMARK UNBOUND:                -0.147
REMARK  Name = results/663de924-5951-4d78-a24f-2e7158d306ab_ligand.pdb
REMARK  6 active torsions:
REMARK  status: ('A' for Active; 'I' for Inactive)
REMARK    1  A    between atoms: C1_1  and  C2_2
REMARK    2  A    between atoms: C2_2  and  N1_3
REMARK    3  A    between atoms: N1_3  and  C3_4
REMARK    4  A    between atoms: N1_3  and  C5_6
REMARK    5  A    between atoms: C3_4  and  C4_5
REMARK    6  A    between atoms: C5_6  and  C6_7
REMARK                            x       y       z     vdW  Elec       q    Type
REMARK                         _______ _______ _______ _____ _____    ______ ____
ROOT
ATOM      1  N1  UNL     1       5.518   2.032   5.512  0.00  0.00    +0.000 NA
ENDROOT
BRANCH   1   3
ATOM      2  C1  UNL     1       6.729   2.592   7.577  0.00  0.00    +0.000 C 
ATOM      3  C2  UNL     1       5.724   3.084   6.542  0.00  0.00    +0.000 C 
ENDBRANCH   1   3
BRANCH   1   4
ATOM      4  C3  UNL     1       6.779   1.687   4.817  0.00  0.00    +0.000 C 
ATOM      5  C4  UNL     1       6.901   0.176   4.618  0.00  0.00    +0.000 C 
ENDBRANCH   1   4
BRANCH   1   6
ATOM      6  C5  UNL     1       4.477   2.421   4.532  0.00  0.00    +0.000 C 
ATOM      7  C6  UNL     1       4.983   3.525   3.604  0.00  0.00    +0.000 C 
ENDBRANCH   1   6
TORSDOF 3
ENDMDL
MODEL 8
REMARK VINA RESULT:    -2.798     23.223     24.817
REMARK INTER + INTRA:          -3.437
REMARK INTER:                  -3.248
REMARK INTRA:                  -0.188
REMARK UNBOUND:                -0.147
REMARK  Name = results/663de924-5951-4d78-a24f-2e7158d306ab_ligand.pdb
REMARK  6 active torsions:
REMARK  status: ('A' for Active; 'I' for Inactive)
REMARK    1  A    between atoms: C1_1  and  C2_2
REMARK    2  A    between atoms: C2_2  and  N1_3
REMARK    3  A    between atoms: N1_3  and  C3_4
REMARK    4  A    between atoms: N1_3  and  C5_6
REMARK    5  A    between atoms: C3_4  and  C4_5
REMARK    6  A    between atoms: C5_6  and  C6_7
REMARK                            x       y       z     vdW  Elec       q    Type
REMARK                         _______ _______ _______ _____ _____    ______ ____
ROOT
ATOM      1  N1  UNL     1     -11.740 -10.423  -7.433  0.00  0.00    +0.000 NA
ENDROOT
BRANCH   1   3
ATOM      2  C1  UNL     1     -10.064 -10.015  -5.680  0.00  0.00    +0.000 C 
ATOM      3  C2  UNL     1     -11.151 -10.960  -6.178  0.00  0.00    +0.000 C 
ENDBRANCH   1   3
BRANCH   1   4
ATOM      4  C3  UNL     1     -11.599 -11.376  -8.558  0.00  0.00    +0.000 C 
ATOM      5  C4  UNL     1     -10.550 -10.892  -9.559  0.00  0.00    +0.000 C 
ENDBRANCH   1   4
BRANCH   1   6
ATOM      6  C5  UNL     1     -11.161  -9.108  -7.793  0.00  0.00    +0.000 C 
ATOM      7  C6  UNL     1     -12.253  -8.046  -7.924  0.00  0.00    +0.000 C 
ENDBRANCH   1   6
TORSDOF 3
ENDMDL
MODEL 9
REMARK VINA RESULT:    -2.709      2.346      3.281
REMARK INTER + INTRA:          -3.332
REMARK INTER:                  -3.124
REMARK INTRA:                  -0.208
REMARK UNBOUND:                -0.147
REMARK  Name = results/663de924-5951-4d78-a24f-2e7158d306ab_ligand.pdb
REMARK  6 active torsions:
REMARK  status: ('A' for Active; 'I' for Inactive)
REMARK    1  A    between atoms: C1_1  and  C2_2
REMARK    2  A    between atoms: C2_2  and  N1_3
REMARK    3  A    between atoms: N1_3  and  C3_4
REMARK    4  A    between atoms: N1_3  and  C5_6
REMARK    5  A    between atoms: C3_4  and  C4_5
REMARK    6  A    between atoms: C5_6  and  C6_7
REMARK                            x       y       z     vdW  Elec       q    Type
REMARK                         _______ _______ _______ _____ _____    ______ ____
ROOT
ATOM      1  N1  UNL     1       7.619   1.235   6.272  0.00  0.00    +0.000 NA
ENDROOT
BRANCH   1   3
ATOM      2  C1  UNL     1       7.360  -0.974   7.320  0.00  0.00    +0.000 C 
ATOM      3  C2  UNL     1       7.381   0.531   7.559  0.00  0.00    +0.000 C 
ENDBRANCH   1   3
BRANCH   1   4
ATOM      4  C3  UNL     1       6.792   2.458   6.153  0.00  0.00    +0.000 C 
ATOM      5  C4  UNL     1       6.062   2.757   7.463  0.00  0.00    +0.000 C 
ENDBRANCH   1   4
BRANCH   1   6
ATOM      6  C5  UNL     1       7.396   0.345   5.109  0.00  0.00    +0.000 C 
ATOM      7  C6  UNL     1       6.272   0.876   4.220  0.00  0.00    +0.000 C 
ENDBRANCH   1   6
TORSDOF 3
ENDMDL
