MODEL 1
REMARK VINA RESULT:    -2.938      0.000      0.000
REMARK INTER + INTRA:          -3.613
REMARK INTER:                  -3.453
REMARK INTRA:                  -0.160
REMARK UNBOUND:                -0.160
REMARK  Name = results/3d8d9692-efcc-4a1f-82b9-947b20057706_ligand.pdb
REMARK  6 active torsions:
REMARK  status: ('A' for Active; 'I' for Inactive)
REMARK    1  A    between atoms: C1_1  and  C2_2
REMARK    2  A    between atoms: C2_2  and  N1_3
REMARK    3  A    between atoms: N1_3  and  C3_4
REMARK    4  A    between atoms: N1_3  and  C5_6
REMARK    5  A    between atoms: C3_4  and  C4_5
REMARK    6  A    between atoms: C5_6  and  C6_7
REMARK                            x       y       z     vdW  Elec       q    Type
REMARK                         _______ _______ _______ _____ _____    ______ ____
ROOT
ATOM      1  N1  UNL     1      -4.551  -3.216   2.214  0.00  0.00    +0.000 NA
ENDROOT
BRANCH   1   3
ATOM      2  C1  UNL     1      -6.004  -1.322   2.805  0.00  0.00    +0.000 C 
ATOM      3  C2  UNL     1      -4.591  -1.745   2.423  0.00  0.00    +0.000 C 
ENDBRANCH   1   3
BRANCH   1   4
ATOM      4  C3  UNL     1      -3.649  -3.885   3.179  0.00  0.00    +0.000 C 
ATOM      5  C4  UNL     1      -2.623  -2.902   3.744  0.00  0.00    +0.000 C 
ENDBRANCH   1   4
BRANCH   1   6
ATOM      6  C5  UNL     1      -4.172  -3.563   0.825  0.00  0.00    +0.000 C 
ATOM      7  C6  UNL     1      -3.597  -4.977   0.751  0.00  0.00    +0.000 C 
ENDBRANCH   1   6
TORSDOF 3
ENDMDL
MODEL 2
REMARK VINA RESULT:    -2.915      0.117      3.154
REMARK INTER + INTRA:          -3.586
REMARK INTER:                  -3.428
REMARK INTRA:                  -0.158
REMARK UNBOUND:                -0.160
REMARK  Name = results/3d8d9692-efcc-4a1f-82b9-947b20057706_ligand.pdb
REMARK  6 active torsions:
REMARK  status: ('A' for Active; 'I' for Inactive)
REMARK    1  A    between atoms: C1_1  and  C2_2
REMARK    2  A    between atoms: C2_2  and  N1_3
REMARK    3  A    between atoms: N1_3  and  C3_4
REMARK    4  A    between atoms: N1_3  and  C5_6
REMARK    5  A    between atoms: C3_4  and  C4_5
REMARK    6  A    between atoms: C5_6  and  C6_7
REMARK                            x       y       z     vdW  Elec       q    Type
REMARK                         _______ _______ _______ _____ _____    ______ ____
ROOT
ATOM      1  N1  UNL     1      -4.562  -3.272   2.121  0.00  0.00    +0.000 NA
ENDROOT
BRANCH   1   3
ATOM      2  C1  UNL     1      -3.587  -4.954   0.616  0.00  0.00    +0.000 C 
ATOM      3  C2  UNL     1      -4.261  -3.590   0.700  0.00  0.00    +0.000 C 
ENDBRANCH   1   3
BRANCH   1   4
ATOM      4  C3  UNL     1      -4.569  -1.812   2.368  0.00  0.00    +0.000 C 
ATOM      5  C4  UNL     1      -5.953  -1.337   2.814  0.00  0.00    +0.000 C 
ENDBRANCH   1   4
BRANCH   1   6
ATOM      6  C5  UNL     1      -3.625  -3.949   3.046  0.00  0.00    +0.000 C 
ATOM      7  C6  UNL     1      -2.683  -2.943   3.706  0.00  0.00    +0.000 C 
ENDBRANCH   1   6
TORSDOF 3
ENDMDL
MODEL 3
REMARK VINA RESULT:    -2.906      0.292      3.250
REMARK INTER + INTRA:          -3.575
REMARK INTER:                  -3.414
REMARK INTRA:                  -0.161
REMARK UNBOUND:                -0.160
REMARK  Name = results/3d8d9692-efcc-4a1f-82b9-947b20057706_ligand.pdb
REMARK  6 active torsions:
REMARK  status: ('A' for Active; 'I' for Inactive)
REMARK    1  A    between atoms: C1_1  and  C2_2
REMARK    2  A    between atoms: C2_2  and  N1_3
REMARK    3  A    between atoms: N1_3  and  C3_4
REMARK    4  A    between atoms: N1_3  and  C5_6
REMARK    5  A    between atoms: C3_4  and  C4_5
REMARK    6  A    between atoms: C5_6  and  C6_7
REMARK                            x       y       z     vdW  Elec       q    Type
REMARK                         _______ _______ _______ _____ _____    ______ ____
ROOT
ATOM      1  N1  UNL     1      -4.545  -3.190   2.198  0.00  0.00    +0.000 NA
ENDROOT
BRANCH   1   3
ATOM      2  C1  UNL     1      -2.637  -2.903   3.723  0.00  0.00    +0.000 C 
ATOM      3  C2  UNL     1      -3.437  -3.898   2.891  0.00  0.00    +0.000 C 
ENDBRANCH   1   3
BRANCH   1   4
ATOM      4  C3  UNL     1      -4.460  -3.339   0.728  0.00  0.00    +0.000 C 
ATOM      5  C4  UNL     1      -3.782  -4.656   0.348  0.00  0.00    +0.000 C 
ENDBRANCH   1   4
BRANCH   1   6
ATOM      6  C5  UNL     1      -4.599  -1.757   2.570  0.00  0.00    +0.000 C 
ATOM      7  C6  UNL     1      -6.040  -1.302   2.795  0.00  0.00    +0.000 C 
ENDBRANCH   1   6
TORSDOF 3
ENDMDL
MODEL 4
REMARK VINA RESULT:    -2.897      0.634      2.493
REMARK INTER + INTRA:          -3.565
REMARK INTER:                  -3.405
REMARK INTRA:                  -0.160
REMARK UNBOUND:                -0.160
REMARK  Name = results/3d8d9692-efcc-4a1f-82b9-947b20057706_ligand.pdb
REMARK  6 active torsions:
REMARK  status: ('A' for Active; 'I' for Inactive)
REMARK    1  A    between atoms: C1_1  and  C2_2
REMARK    2  A    between atoms: C2_2  and  N1_3
REMARK    3  A    between atoms: N1_3  and  C3_4
REMARK    4  A    between atoms: N1_3  and  C5_6
REMARK    5  A    between atoms: C3_4  and  C4_5
REMARK    6  A    between atoms: C5_6  and  C6_7
REMARK                            x       y       z     vdW  Elec       q    Type
REMARK                         _______ _______ _______ _____ _____    ______ ____
ROOT
ATOM      1  N1  UNL     1      -4.198  -3.067   2.085  0.00  0.00    +0.000 NA
ENDROOT
BRANCH   1   3
ATOM      2  C1  UNL     1      -5.842  -1.384   2.799  0.00  0.00    +0.000 C 
ATOM      3  C2  UNL     1      -5.623  -2.851   2.449  0.00  0.00    +0.000 C 
ENDBRANCH   1   3
BRANCH   1   4
ATOM      4  C3  UNL     1      -4.063  -3.809   0.810  0.00  0.00    +0.000 C 
ATOM      5  C4  UNL     1      -3.498  -5.210   1.047  0.00  0.00    +0.000 C 
ENDBRANCH   1   4
BRANCH   1   6
ATOM      6  C5  UNL     1      -3.454  -3.755   3.165  0.00  0.00    +0.000 C 
ATOM      7  C6  UNL     1      -2.525  -2.785   3.894  0.00  0.00    +0.000 C 
ENDBRANCH   1   6
TORSDOF 3
ENDMDL
MODEL 5
REMARK VINA RESULT:    -2.894      0.630      2.917
REMARK INTER + INTRA:          -3.562
REMARK INTER:                  -3.412
REMARK INTRA:                  -0.150
REMARK UNBOUND:                -0.160
REMARK  Name = results/3d8d9692-efcc-4a1f-82b9-947b20057706_ligand.pdb
REMARK  6 active torsions:
REMARK  status: ('A' for Active; 'I' for Inactive)
REMARK    1  A    between atoms: C1_1  and  C2_2
REMARK    2  A    between atoms: C2_2  and  N1_3
REMARK    3  A    between atoms: N1_3  and  C3_4
REMARK    4  A    between atoms: N1_3  and  C5_6
REMARK    5  A    between atoms: C3_4  and  C4_5
REMARK    6  A    between atoms: C5_6  and  C6_7
REMARK                            x       y       z     vdW  Elec       q    Type
REMARK                         _______ _______ _______ _____ _____    ______ ____
ROOT
ATOM      1  N1  UNL     1      -4.214  -3.086   1.999  0.00  0.00    +0.000 NA
ENDROOT
BRANCH   1   3
ATOM      2  C1  UNL     1      -3.500  -5.252   1.079  0.00  0.00    +0.000 C 
ATOM      3  C2  UNL     1      -4.048  -3.870   0.747  0.00  0.00    +0.000 C 
ENDBRANCH   1   3
BRANCH   1   4
ATOM      4  C3  UNL     1      -3.590  -3.764   3.158  0.00  0.00    +0.000 C 
ATOM      5  C4  UNL     1      -2.544  -2.867   3.822  0.00  0.00    +0.000 C 
ENDBRANCH   1   4
BRANCH   1   6
ATOM      6  C5  UNL     1      -5.638  -2.790   2.277  0.00  0.00    +0.000 C 
ATOM      7  C6  UNL     1      -5.803  -1.387   2.858  0.00  0.00    +0.000 C 
ENDBRANCH   1   6
TORSDOF 3
ENDMDL
MODEL 6
REMARK VINA RESULT:    -2.780      1.570      2.139
REMARK INTER + INTRA:          -3.427
REMARK INTER:                  -3.288
REMARK INTRA:                  -0.139
REMARK UNBOUND:                -0.160
REMARK  Name = results/3d8d9692-efcc-4a1f-82b9-947b20057706_ligand.pdb
REMARK  6 active torsions:
REMARK  status: ('A' for Active; 'I' for Inactive)
REMARK    1  A    between atoms: C1_1  and  C2_2
REMARK    2  A    between atoms: C2_2  and  N1_3
REMARK    3  A    between atoms: N1_3  and  C3_4
REMARK    4  A    between atoms: N1_3  and  C5_6
REMARK    5  A    between atoms: C3_4  and  C4_5
REMARK    6  A    between atoms: C5_6  and  C6_7
REMARK                            x       y       z     vdW  Elec       q    Type
REMARK                         _______ _______ _______ _____ _____    ______ ____
ROOT
ATOM      1  N1  UNL     1      -3.732  -4.705   2.193  0.00  0.00    +0.000 NA
ENDROOT
BRANCH   1   3
ATOM      2  C1  UNL     1      -6.001  -4.584   3.133  0.00  0.00    +0.000 C 
ATOM      3  C2  UNL     1      -4.917  -5.508   2.593  0.00  0.00    +0.000 C 
ENDBRANCH   1   3
BRANCH   1   4
ATOM      4  C3  UNL     1      -3.809  -3.318   2.708  0.00  0.00    +0.000 C 
ATOM      5  C4  UNL     1      -2.629  -3.009   3.630  0.00  0.00    +0.000 C 
ENDBRANCH   1   4
BRANCH   1   6
ATOM      6  C5  UNL     1      -3.541  -4.701   0.724  0.00  0.00    +0.000 C 
ATOM      7  C6  UNL     1      -2.918  -6.014   0.250  0.00  0.00    +0.000 C 
ENDBRANCH   1   6
TORSDOF 3
ENDMDL
MODEL 7
REMARK VINA RESULT:    -2.733      1.214      2.870
REMARK INTER + INTRA:          -3.372
REMARK INTER:                  -3.188
REMARK INTRA:                  -0.184
REMARK UNBOUND:                -0.160
REMARK  Name = results/3d8d9692-efcc-4a1f-82b9-947b20057706_ligand.pdb
REMARK  6 active torsions:
REMARK  status: ('A' for Active; 'I' for Inactive)
REMARK    1  A    between atoms: C1_1  and  C2_2
REMARK    2  A    between atoms: C2_2  and  N1_3
REMARK    3  A    between atoms: N1_3  and  C3_4
REMARK    4  A    between atoms: N1_3  and  C5_6
REMARK    5  A    between atoms: C3_4  and  C4_5
REMARK    6  A    between atoms: C5_6  and  C6_7
REMARK                            x       y       z     vdW  Elec       q    Type
REMARK                         _______ _______ _______ _____ _____    ______ ____
ROOT
ATOM      1  N1  UNL     1      -4.519  -3.042   2.053  0.00  0.00    +0.000 NA
ENDROOT
BRANCH   1   3
ATOM      2  C1  UNL     1      -2.673  -2.940   3.674  0.00  0.00    +0.000 C 
ATOM      3  C2  UNL     1      -3.367  -3.793   2.619  0.00  0.00    +0.000 C 
ENDBRANCH   1   3
BRANCH   1   4
ATOM      4  C3  UNL     1      -4.802  -1.808   2.821  0.00  0.00    +0.000 C 
ATOM      5  C4  UNL     1      -6.175  -1.240   2.460  0.00  0.00    +0.000 C 
ENDBRANCH   1   4
BRANCH   1   6
ATOM      6  C5  UNL     1      -5.733  -3.885   1.962  0.00  0.00    +0.000 C 
ATOM      7  C6  UNL     1      -5.829  -4.838   3.153  0.00  0.00    +0.000 C 
ENDBRANCH   1   6
TORSDOF 3
ENDMDL
MODEL 8
REMARK VINA RESULT:    -2.714      1.279      2.639
REMARK INTER + INTRA:          -3.349
REMARK INTER:                  -3.205
REMARK INTRA:                  -0.144
REMARK UNBOUND:                -0.160
REMARK  Name = results/3d8d9692-efcc-4a1f-82b9-947b20057706_ligand.pdb
REMARK  6 active torsions:
REMARK  status: ('A' for Active; 'I' for Inactive)
REMARK    1  A    between atoms: C1_1  and  C2_2
REMARK    2  A    between atoms: C2_2  and  N1_3
REMARK    3  A    between atoms: N1_3  and  C3_4
REMARK    4  A    between atoms: N1_3  and  C5_6
REMARK    5  A    between atoms: C3_4  and  C4_5
REMARK    6  A    between atoms: C5_6  and  C6_7
REMARK                            x       y       z     vdW  Elec       q    Type
REMARK                         _______ _______ _______ _____ _____    ______ ____
ROOT
ATOM      1  N1  UNL     1      -3.660  -3.894   1.471  0.00  0.00    +0.000 NA
ENDROOT
BRANCH   1   3
ATOM      2  C1  UNL     1      -2.728  -3.108   3.606  0.00  0.00    +0.000 C 
ATOM      3  C2  UNL     1      -4.001  -3.486   2.859  0.00  0.00    +0.000 C 
ENDBRANCH   1   3
BRANCH   1   4
ATOM      4  C3  UNL     1      -4.599  -3.316   0.481  0.00  0.00    +0.000 C 
ATOM      5  C4  UNL     1      -4.889  -1.848   0.792  0.00  0.00    +0.000 C 
ENDBRANCH   1   4
BRANCH   1   6
ATOM      6  C5  UNL     1      -3.603  -5.367   1.330  0.00  0.00    +0.000 C 
ATOM      7  C6  UNL     1      -3.080  -5.766  -0.050  0.00  0.00    +0.000 C 
ENDBRANCH   1   6
TORSDOF 3
ENDMDL
MODEL 9
REMARK VINA RESULT:    -2.573      1.739      3.748
REMARK INTER + INTRA:          -3.184
REMARK INTER:                  -2.976
REMARK INTRA:                  -0.208
REMARK UNBOUND:                -0.160
REMARK  Name = results/3d8d9692-efcc-4a1f-82b9-947b20057706_ligand.pdb
REMARK  6 active torsions:
REMARK  status: ('A' for Active; 'I' for Inactive)
REMARK    1  A    between atoms: C1_1  and  C2_2
REMARK    2  A    between atoms: C2_2  and  N1_3
REMARK    3  A    between atoms: N1_3  and  C3_4
REMARK    4  A    between atoms: N1_3  and  C5_6
REMARK    5  A    between atoms: C3_4  and  C4_5
REMARK    6  A    between atoms: C5_6  and  C6_7
REMARK                            x       y       z     vdW  Elec       q    Type
REMARK                         _______ _______ _______ _____ _____    ______ ____
ROOT
ATOM      1  N1  UNL     1      -4.606  -4.681   1.937  0.00  0.00    +0.000 NA
ENDROOT
BRANCH   1   3
ATOM      2  C1  UNL     1      -3.138  -6.318   0.835  0.00  0.00    +0.000 C 
ATOM      3  C2  UNL     1      -4.210  -6.114   1.899  0.00  0.00    +0.000 C 
ENDBRANCH   1   3
BRANCH   1   4
ATOM      4  C3  UNL     1      -3.886  -3.884   0.918  0.00  0.00    +0.000 C 
ATOM      5  C4  UNL     1      -4.855  -3.022   0.108  0.00  0.00    +0.000 C 
ENDBRANCH   1   4
BRANCH   1   6
ATOM      6  C5  UNL     1      -4.415  -4.094   3.283  0.00  0.00    +0.000 C 
ATOM      7  C6  UNL     1      -3.077  -3.362   3.377  0.00  0.00    +0.000 C 
ENDBRANCH   1   6
TORSDOF 3
ENDMDL
