MODEL 1
REMARK VINA RESULT:    -6.524      0.000      0.000
REMARK INTER + INTRA:          -8.684
REMARK INTER:                  -8.050
REMARK INTRA:                  -0.634
REMARK UNBOUND:                -0.634
REMARK  Name = C:\Users\Bellamkonda Sowmya\OneDrive\Desktop\LIGBIND AI\authml\authml\backend\results\ligand_1764954561646.pdb
REMARK  4 active torsions:
REMARK  status: ('A' for Active; 'I' for Inactive)
REMARK    1  A    between atoms: S_2  and  N_4
REMARK    2  A    between atoms: S_2  and  C_21
REMARK    3  A    between atoms: N_4  and  C_5
REMARK    4  A    between atoms: C_9  and  C_10
REMARK                            x       y       z     vdW  Elec       q    Type
REMARK                         _______ _______ _______ _____ _____    ______ ____
ROOT
ATOM      1  C   UNL     1      -2.778  -6.654  -0.867  0.00  0.00    +0.000 A 
ATOM      2  C   UNL     1      -3.394  -7.880  -1.177  0.00  0.00    +0.000 A 
ATOM      3  C   UNL     1      -3.519  -8.305  -2.491  0.00  0.00    +0.000 A 
ATOM      4  C   UNL     1      -3.046  -7.513  -3.513  0.00  0.00    +0.000 A 
ATOM      5  C   UNL     1      -2.425  -6.362  -3.211  0.00  0.00    +0.000 A 
ATOM      6  C   UNL     1      -2.396  -6.248  -2.075  0.00  0.00    +0.000 A 
ENDROOT
BRANCH   5   7
ATOM      7  C   UNL     1      -1.853  -5.374  -4.215  0.00  0.00    +0.000 A 
ATOM      8  C   UNL     1      -4.343  -0.623  -4.313  0.00  0.00    +0.000 A 
ATOM      9  N   UNL     1      -3.625  -1.809  -4.184  0.00  0.00    +0.000 NA
ATOM     10  C   UNL     1      -2.728  -2.191  -5.179  0.00  0.00    +0.000 A 
ATOM     11  C   UNL     1      -2.397  -1.541  -6.382  0.00  0.00    +0.000 A 
ATOM     12  C   UNL     1      -1.422  -2.053  -7.225  0.00  0.00    +0.000 A 
ATOM     13  C   UNL     1      -0.754  -3.207  -6.879  0.00  0.00    +0.000 A 
ATOM     14  C   UNL     1      -1.101  -3.845  -5.749  0.00  0.00    +0.000 A 
ATOM     15  C   UNL     1      -1.955  -3.270  -5.250  0.00  0.00    +0.000 A 
ATOM     16  N   UNL     1      -2.450  -4.126  -4.382  0.00  0.00    +0.000 NA
ENDBRANCH   5   7
BRANCH   1  17
ATOM     17  N   UNL     1      -2.605  -6.003   0.439  0.00  0.00    +0.000 N 
ATOM     18  H   UNL     1      -1.668  -5.821   0.798  0.00  0.00    +0.000 HD
BRANCH  17  20
ATOM     19  O   UNL     1      -5.169  -5.190   0.439  0.00  0.00    +0.000 OA
ATOM     20  S   UNL     1      -4.015  -5.534   1.383  0.00  0.00    +0.000 S 
ATOM     21  O   UNL     1      -4.428  -6.694   2.292  0.00  0.00    +0.000 OA
BRANCH  20  22
ATOM     22  C   UNL     1      -3.610  -4.088   2.394  0.00  0.00    +0.000 A 
ATOM     23  C   UNL     1      -4.069  -2.747   3.074  0.00  0.00    +0.000 A 
ATOM     24  C   UNL     1      -2.665  -2.944   3.677  0.00  0.00    +0.000 A 
ATOM     25  C   UNL     1      -2.665  -2.944   3.677  0.00  0.00    +0.000 A 
ATOM     26  S   UNL     1      -2.665  -2.944   3.677  0.00  0.00    +0.000 S 
ENDBRANCH  20  22
ENDBRANCH  17  20
ENDBRANCH   1  17
TORSDOF 4
ENDMDL
