MODEL 1
REMARK VINA RESULT:    -2.944      0.000      0.000
REMARK INTER + INTRA:          -3.613
REMARK INTER:                  -3.460
REMARK INTRA:                  -0.153
REMARK UNBOUND:                -0.153
REMARK  Name = C:\Users\Bellamkonda Sowmya\OneDrive\Documents\backend[1]\backend\results\ligand_1764362449627.pdb
REMARK  6 active torsions:
REMARK  status: ('A' for Active; 'I' for Inactive)
REMARK    1  A    between atoms: C_1  and  C_2
REMARK    2  A    between atoms: C_2  and  N_3
REMARK    3  A    between atoms: N_3  and  C_4
REMARK    4  A    between atoms: N_3  and  C_6
REMARK    5  A    between atoms: C_4  and  C_5
REMARK    6  A    between atoms: C_6  and  C_7
REMARK                            x       y       z     vdW  Elec       q    Type
REMARK                         _______ _______ _______ _____ _____    ______ ____
ROOT
ATOM      1  N   UNL     1      -4.473  -3.343   2.200  0.00  0.00    +0.000 NA
ENDROOT
BRANCH   1   3
ATOM      2  C   UNL     1      -2.598  -2.884   3.794  0.00  0.00    +0.000 C 
ATOM      3  C   UNL     1      -3.663  -3.867   3.308  0.00  0.00    +0.000 C 
ENDBRANCH   1   3
BRANCH   1   4
ATOM      4  C   UNL     1      -4.620  -1.876   2.208  0.00  0.00    +0.000 C 
ATOM      5  C   UNL     1      -5.878  -1.317   2.867  0.00  0.00    +0.000 C 
ENDBRANCH   1   4
BRANCH   1   6
ATOM      6  C   UNL     1      -4.017  -3.827   0.889  0.00  0.00    +0.000 C 
ATOM      7  C   UNL     1      -3.430  -5.236   0.946  0.00  0.00    +0.000 C 
ENDBRANCH   1   6
TORSDOF 3
ENDMDL
MODEL 2
REMARK VINA RESULT:    -2.943      0.295      3.139
REMARK INTER + INTRA:          -3.612
REMARK INTER:                  -3.458
REMARK INTRA:                  -0.154
REMARK UNBOUND:                -0.153
REMARK  Name = C:\Users\Bellamkonda Sowmya\OneDrive\Documents\backend[1]\backend\results\ligand_1764362449627.pdb
REMARK  6 active torsions:
REMARK  status: ('A' for Active; 'I' for Inactive)
REMARK    1  A    between atoms: C_1  and  C_2
REMARK    2  A    between atoms: C_2  and  N_3
REMARK    3  A    between atoms: N_3  and  C_4
REMARK    4  A    between atoms: N_3  and  C_6
REMARK    5  A    between atoms: C_4  and  C_5
REMARK    6  A    between atoms: C_6  and  C_7
REMARK                            x       y       z     vdW  Elec       q    Type
REMARK                         _______ _______ _______ _____ _____    ______ ____
ROOT
ATOM      1  N   UNL     1      -4.487  -3.211   2.167  0.00  0.00    +0.000 NA
ENDROOT
BRANCH   1   3
ATOM      2  C   UNL     1      -5.949  -1.299   2.858  0.00  0.00    +0.000 C 
ATOM      3  C   UNL     1      -4.566  -1.761   2.397  0.00  0.00    +0.000 C 
ENDBRANCH   1   3
BRANCH   1   4
ATOM      4  C   UNL     1      -4.259  -3.582   0.759  0.00  0.00    +0.000 C 
ATOM      5  C   UNL     1      -3.559  -4.915   0.506  0.00  0.00    +0.000 C 
ENDBRANCH   1   4
BRANCH   1   6
ATOM      6  C   UNL     1      -3.521  -3.872   3.057  0.00  0.00    +0.000 C 
ATOM      7  C   UNL     1      -2.613  -2.886   3.788  0.00  0.00    +0.000 C 
ENDBRANCH   1   6
TORSDOF 3
ENDMDL
MODEL 3
REMARK VINA RESULT:    -2.932      0.069      3.186
REMARK INTER + INTRA:          -3.599
REMARK INTER:                  -3.445
REMARK INTRA:                  -0.153
REMARK UNBOUND:                -0.153
REMARK  Name = C:\Users\Bellamkonda Sowmya\OneDrive\Documents\backend[1]\backend\results\ligand_1764362449627.pdb
REMARK  6 active torsions:
REMARK  status: ('A' for Active; 'I' for Inactive)
REMARK    1  A    between atoms: C_1  and  C_2
REMARK    2  A    between atoms: C_2  and  N_3
REMARK    3  A    between atoms: N_3  and  C_4
REMARK    4  A    between atoms: N_3  and  C_6
REMARK    5  A    between atoms: C_4  and  C_5
REMARK    6  A    between atoms: C_6  and  C_7
REMARK                            x       y       z     vdW  Elec       q    Type
REMARK                         _______ _______ _______ _____ _____    ______ ____
ROOT
ATOM      1  N   UNL     1      -4.484  -3.338   2.133  0.00  0.00    +0.000 NA
ENDROOT
BRANCH   1   3
ATOM      2  C   UNL     1      -3.472  -5.285   0.926  0.00  0.00    +0.000 C 
ATOM      3  C   UNL     1      -4.015  -3.859   0.840  0.00  0.00    +0.000 C 
ENDBRANCH   1   3
BRANCH   1   4
ATOM      4  C   UNL     1      -3.692  -3.800   3.286  0.00  0.00    +0.000 C 
ATOM      5  C   UNL     1      -2.565  -2.883   3.755  0.00  0.00    +0.000 C 
ENDBRANCH   1   4
BRANCH   1   6
ATOM      6  C   UNL     1      -4.627  -1.875   2.133  0.00  0.00    +0.000 C 
ATOM      7  C   UNL     1      -5.883  -1.400   2.860  0.00  0.00    +0.000 C 
ENDBRANCH   1   6
TORSDOF 3
ENDMDL
MODEL 4
REMARK VINA RESULT:    -2.903      0.563      2.499
REMARK INTER + INTRA:          -3.564
REMARK INTER:                  -3.410
REMARK INTRA:                  -0.154
REMARK UNBOUND:                -0.153
REMARK  Name = C:\Users\Bellamkonda Sowmya\OneDrive\Documents\backend[1]\backend\results\ligand_1764362449627.pdb
REMARK  6 active torsions:
REMARK  status: ('A' for Active; 'I' for Inactive)
REMARK    1  A    between atoms: C_1  and  C_2
REMARK    2  A    between atoms: C_2  and  N_3
REMARK    3  A    between atoms: N_3  and  C_4
REMARK    4  A    between atoms: N_3  and  C_6
REMARK    5  A    between atoms: C_4  and  C_5
REMARK    6  A    between atoms: C_6  and  C_7
REMARK                            x       y       z     vdW  Elec       q    Type
REMARK                         _______ _______ _______ _____ _____    ______ ____
ROOT
ATOM      1  N   UNL     1      -4.239  -3.109   1.991  0.00  0.00    +0.000 NA
ENDROOT
BRANCH   1   3
ATOM      2  C   UNL     1      -3.482  -5.172   0.790  0.00  0.00    +0.000 C 
ATOM      3  C   UNL     1      -4.171  -3.810   0.700  0.00  0.00    +0.000 C 
ENDBRANCH   1   3
BRANCH   1   4
ATOM      4  C   UNL     1      -5.610  -2.793   2.429  0.00  0.00    +0.000 C 
ATOM      5  C   UNL     1      -5.880  -1.350   2.849  0.00  0.00    +0.000 C 
ENDBRANCH   1   4
BRANCH   1   6
ATOM      6  C   UNL     1      -3.486  -3.800   3.048  0.00  0.00    +0.000 C 
ATOM      7  C   UNL     1      -2.556  -2.869   3.823  0.00  0.00    +0.000 C 
ENDBRANCH   1   6
TORSDOF 3
ENDMDL
MODEL 5
REMARK VINA RESULT:    -2.858      0.575      2.995
REMARK INTER + INTRA:          -3.512
REMARK INTER:                  -3.365
REMARK INTRA:                  -0.147
REMARK UNBOUND:                -0.153
REMARK  Name = C:\Users\Bellamkonda Sowmya\OneDrive\Documents\backend[1]\backend\results\ligand_1764362449627.pdb
REMARK  6 active torsions:
REMARK  status: ('A' for Active; 'I' for Inactive)
REMARK    1  A    between atoms: C_1  and  C_2
REMARK    2  A    between atoms: C_2  and  N_3
REMARK    3  A    between atoms: N_3  and  C_4
REMARK    4  A    between atoms: N_3  and  C_6
REMARK    5  A    between atoms: C_4  and  C_5
REMARK    6  A    between atoms: C_6  and  C_7
REMARK                            x       y       z     vdW  Elec       q    Type
REMARK                         _______ _______ _______ _____ _____    ______ ____
ROOT
ATOM      1  N   UNL     1      -4.338  -3.160   2.059  0.00  0.00    +0.000 NA
ENDROOT
BRANCH   1   3
ATOM      2  C   UNL     1      -2.574  -2.877   3.814  0.00  0.00    +0.000 C 
ATOM      3  C   UNL     1      -3.601  -3.801   3.159  0.00  0.00    +0.000 C 
ENDBRANCH   1   3
BRANCH   1   4
ATOM      4  C   UNL     1      -4.331  -3.933   0.804  0.00  0.00    +0.000 C 
ATOM      5  C   UNL     1      -3.400  -5.141   0.748  0.00  0.00    +0.000 C 
ENDBRANCH   1   4
BRANCH   1   6
ATOM      6  C   UNL     1      -5.704  -2.777   2.444  0.00  0.00    +0.000 C 
ATOM      7  C   UNL     1      -5.812  -1.318   2.882  0.00  0.00    +0.000 C 
ENDBRANCH   1   6
TORSDOF 3
ENDMDL
MODEL 6
REMARK VINA RESULT:    -2.725      1.158      2.602
REMARK INTER + INTRA:          -3.355
REMARK INTER:                  -3.207
REMARK INTRA:                  -0.148
REMARK UNBOUND:                -0.153
REMARK  Name = C:\Users\Bellamkonda Sowmya\OneDrive\Documents\backend[1]\backend\results\ligand_1764362449627.pdb
REMARK  6 active torsions:
REMARK  status: ('A' for Active; 'I' for Inactive)
REMARK    1  A    between atoms: C_1  and  C_2
REMARK    2  A    between atoms: C_2  and  N_3
REMARK    3  A    between atoms: N_3  and  C_4
REMARK    4  A    between atoms: N_3  and  C_6
REMARK    5  A    between atoms: C_4  and  C_5
REMARK    6  A    between atoms: C_6  and  C_7
REMARK                            x       y       z     vdW  Elec       q    Type
REMARK                         _______ _______ _______ _____ _____    ______ ____
ROOT
ATOM      1  N   UNL     1      -3.928  -3.506   1.312  0.00  0.00    +0.000 NA
ENDROOT
BRANCH   1   3
ATOM      2  C   UNL     1      -4.967  -1.352   0.571  0.00  0.00    +0.000 C 
ATOM      3  C   UNL     1      -5.125  -2.653   1.357  0.00  0.00    +0.000 C 
ENDBRANCH   1   3
BRANCH   1   4
ATOM      4  C   UNL     1      -3.527  -4.044   2.624  0.00  0.00    +0.000 C 
ATOM      5  C   UNL     1      -2.810  -3.083   3.570  0.00  0.00    +0.000 C 
ENDBRANCH   1   4
BRANCH   1   6
ATOM      6  C   UNL     1      -4.032  -4.572   0.306  0.00  0.00    +0.000 C 
ATOM      7  C   UNL     1      -3.087  -5.741   0.577  0.00  0.00    +0.000 C 
ENDBRANCH   1   6
TORSDOF 3
ENDMDL
MODEL 7
REMARK VINA RESULT:    -2.716      1.618      3.190
REMARK INTER + INTRA:          -3.345
REMARK INTER:                  -3.218
REMARK INTRA:                  -0.127
REMARK UNBOUND:                -0.153
REMARK  Name = C:\Users\Bellamkonda Sowmya\OneDrive\Documents\backend[1]\backend\results\ligand_1764362449627.pdb
REMARK  6 active torsions:
REMARK  status: ('A' for Active; 'I' for Inactive)
REMARK    1  A    between atoms: C_1  and  C_2
REMARK    2  A    between atoms: C_2  and  N_3
REMARK    3  A    between atoms: N_3  and  C_4
REMARK    4  A    between atoms: N_3  and  C_6
REMARK    5  A    between atoms: C_4  and  C_5
REMARK    6  A    between atoms: C_6  and  C_7
REMARK                            x       y       z     vdW  Elec       q    Type
REMARK                         _______ _______ _______ _____ _____    ______ ____
ROOT
ATOM      1  N   UNL     1      -3.864  -4.938   2.094  0.00  0.00    +0.000 NA
ENDROOT
BRANCH   1   3
ATOM      2  C   UNL     1      -2.806  -6.420   0.376  0.00  0.00    +0.000 C 
ATOM      3  C   UNL     1      -3.424  -5.060   0.696  0.00  0.00    +0.000 C 
ENDBRANCH   1   3
BRANCH   1   4
ATOM      4  C   UNL     1      -3.878  -3.554   2.599  0.00  0.00    +0.000 C 
ATOM      5  C   UNL     1      -2.791  -3.180   3.605  0.00  0.00    +0.000 C 
ENDBRANCH   1   4
BRANCH   1   6
ATOM      6  C   UNL     1      -5.148  -5.611   2.342  0.00  0.00    +0.000 C 
ATOM      7  C   UNL     1      -6.164  -4.713   3.044  0.00  0.00    +0.000 C 
ENDBRANCH   1   6
TORSDOF 3
ENDMDL
MODEL 8
REMARK VINA RESULT:    -2.555      1.752      3.854
REMARK INTER + INTRA:          -3.156
REMARK INTER:                  -2.955
REMARK INTRA:                  -0.201
REMARK UNBOUND:                -0.153
REMARK  Name = C:\Users\Bellamkonda Sowmya\OneDrive\Documents\backend[1]\backend\results\ligand_1764362449627.pdb
REMARK  6 active torsions:
REMARK  status: ('A' for Active; 'I' for Inactive)
REMARK    1  A    between atoms: C_1  and  C_2
REMARK    2  A    between atoms: C_2  and  N_3
REMARK    3  A    between atoms: N_3  and  C_4
REMARK    4  A    between atoms: N_3  and  C_6
REMARK    5  A    between atoms: C_4  and  C_5
REMARK    6  A    between atoms: C_6  and  C_7
REMARK                            x       y       z     vdW  Elec       q    Type
REMARK                         _______ _______ _______ _____ _____    ______ ____
ROOT
ATOM      1  N   UNL     1      -4.681  -4.828   1.988  0.00  0.00    +0.000 NA
ENDROOT
BRANCH   1   3
ATOM      2  C   UNL     1      -4.659  -3.644  -0.218  0.00  0.00    +0.000 C 
ATOM      3  C   UNL     1      -3.847  -4.307   0.895  0.00  0.00    +0.000 C 
ENDBRANCH   1   3
BRANCH   1   4
ATOM      4  C   UNL     1      -4.694  -6.299   2.082  0.00  0.00    +0.000 C 
ATOM      5  C   UNL     1      -3.483  -7.032   1.510  0.00  0.00    +0.000 C 
ENDBRANCH   1   4
BRANCH   1   6
ATOM      6  C   UNL     1      -4.363  -4.212   3.284  0.00  0.00    +0.000 C 
ATOM      7  C   UNL     1      -3.086  -3.375   3.248  0.00  0.00    +0.000 C 
ENDBRANCH   1   6
TORSDOF 3
ENDMDL
MODEL 9
REMARK VINA RESULT:    -2.524     13.309     14.233
REMARK INTER + INTRA:          -3.120
REMARK INTER:                  -2.979
REMARK INTRA:                  -0.140
REMARK UNBOUND:                -0.153
REMARK  Name = C:\Users\Bellamkonda Sowmya\OneDrive\Documents\backend[1]\backend\results\ligand_1764362449627.pdb
REMARK  6 active torsions:
REMARK  status: ('A' for Active; 'I' for Inactive)
REMARK    1  A    between atoms: C_1  and  C_2
REMARK    2  A    between atoms: C_2  and  N_3
REMARK    3  A    between atoms: N_3  and  C_4
REMARK    4  A    between atoms: N_3  and  C_6
REMARK    5  A    between atoms: C_4  and  C_5
REMARK    6  A    between atoms: C_6  and  C_7
REMARK                            x       y       z     vdW  Elec       q    Type
REMARK                         _______ _______ _______ _____ _____    ______ ____
ROOT
ATOM      1  N   UNL     1       9.021  -5.056  -1.909  0.00  0.00    +0.000 NA
ENDROOT
BRANCH   1   3
ATOM      2  C   UNL     1       7.944  -6.026   0.133  0.00  0.00    +0.000 C 
ATOM      3  C   UNL     1       9.098  -6.092  -0.868  0.00  0.00    +0.000 C 
ENDBRANCH   1   3
BRANCH   1   4
ATOM      4  C   UNL     1       9.623  -3.769  -1.518  0.00  0.00    +0.000 C 
ATOM      5  C   UNL     1      10.574  -3.124  -2.523  0.00  0.00    +0.000 C 
ENDBRANCH   1   4
BRANCH   1   6
ATOM      6  C   UNL     1       9.541  -5.518  -3.204  0.00  0.00    +0.000 C 
ATOM      7  C   UNL     1       8.595  -6.482  -3.916  0.00  0.00    +0.000 C 
ENDBRANCH   1   6
TORSDOF 3
ENDMDL
