MODEL 1
REMARK VINA RESULT:    -5.008      0.000      0.000
REMARK INTER + INTRA:          -6.633
REMARK INTER:                  -6.033
REMARK INTRA:                  -0.600
REMARK UNBOUND:                -0.600
REMARK  Name = C:\Users\Bellamkonda Sowmya\Downloads\flask-backend\results\7edda6f4-dff8-4048-9f47-fe76d0f58936_ligand.pdb
REMARK  5 active torsions:
REMARK  status: ('A' for Active; 'I' for Inactive)
REMARK    1  A    between atoms: C1_1  and  C2_2
REMARK    2  A    between atoms: C2_2  and  O2_4
REMARK    3  A    between atoms: O2_4  and  C3_5
REMARK    4  A    between atoms: C8_10  and  C9_11
REMARK    5  A    between atoms: C9_11  and  O4_13
REMARK                            x       y       z     vdW  Elec       q    Type
REMARK                         _______ _______ _______ _____ _____    ______ ____
ROOT
ATOM      1  C3  UNL     1       6.006   2.685   6.433  0.00  0.00    +0.000 A 
ATOM      2  C4  UNL     1       6.710   1.659   7.095  0.00  0.00    +0.000 A 
ATOM      3  C5  UNL     1       7.373   0.669   6.368  0.00  0.00    +0.000 A 
ATOM      4  C6  UNL     1       7.352   0.693   4.976  0.00  0.00    +0.000 A 
ATOM      5  C7  UNL     1       6.676   1.711   4.303  0.00  0.00    +0.000 A 
ATOM      6  C8  UNL     1       6.001   2.722   5.016  0.00  0.00    +0.000 A 
ENDROOT
BRANCH   6   7
ATOM      7  C9  UNL     1       5.292   3.792   4.265  0.00  0.00    +0.000 C 
ATOM      8  O3  UNL     1       4.841   3.563   3.110  0.00  0.00    +0.000 OA
BRANCH   7   9
ATOM      9  O4  UNL     1       5.111   5.057   4.817  0.00  0.00    +0.000 OA
ATOM     10  H8  UNL     1       5.294   5.228   5.799  0.00  0.00    +0.000 HD
ENDBRANCH   7   9
ENDBRANCH   6   7
BRANCH   1  11
ATOM     11  O2  UNL     1       5.352   3.692   7.161  0.00  0.00    +0.000 OA
BRANCH  11  13
ATOM     12  C1  UNL     1       3.941   3.215   9.162  0.00  0.00    +0.000 C 
ATOM     13  C2  UNL     1       4.075   3.585   7.724  0.00  0.00    +0.000 C 
ATOM     14  O1  UNL     1       3.044   3.893   7.064  0.00  0.00    +0.000 OA
ENDBRANCH  11  13
ENDBRANCH   1  11
TORSDOF 4
ENDMDL
MODEL 2
REMARK VINA RESULT:    -4.930      2.672      3.702
REMARK INTER + INTRA:          -6.539
REMARK INTER:                  -6.057
REMARK INTRA:                  -0.482
REMARK UNBOUND:                -0.600
REMARK  Name = C:\Users\Bellamkonda Sowmya\Downloads\flask-backend\results\7edda6f4-dff8-4048-9f47-fe76d0f58936_ligand.pdb
REMARK  5 active torsions:
REMARK  status: ('A' for Active; 'I' for Inactive)
REMARK    1  A    between atoms: C1_1  and  C2_2
REMARK    2  A    between atoms: C2_2  and  O2_4
REMARK    3  A    between atoms: O2_4  and  C3_5
REMARK    4  A    between atoms: C8_10  and  C9_11
REMARK    5  A    between atoms: C9_11  and  O4_13
REMARK                            x       y       z     vdW  Elec       q    Type
REMARK                         _______ _______ _______ _____ _____    ______ ____
ROOT
ATOM      1  C3  UNL     1       6.709   2.862   5.875  0.00  0.00    +0.000 A 
ATOM      2  C4  UNL     1       6.010   4.079   6.005  0.00  0.00    +0.000 A 
ATOM      3  C5  UNL     1       5.016   4.428   5.091  0.00  0.00    +0.000 A 
ATOM      4  C6  UNL     1       4.697   3.568   4.044  0.00  0.00    +0.000 A 
ATOM      5  C7  UNL     1       5.364   2.350   3.910  0.00  0.00    +0.000 A 
ATOM      6  C8  UNL     1       6.372   1.976   4.822  0.00  0.00    +0.000 A 
ENDROOT
BRANCH   6   7
ATOM      7  C9  UNL     1       7.062   0.670   4.648  0.00  0.00    +0.000 C 
ATOM      8  O3  UNL     1       6.417  -0.408   4.761  0.00  0.00    +0.000 OA
BRANCH   7   9
ATOM      9  O4  UNL     1       8.422   0.610   4.356  0.00  0.00    +0.000 OA
ATOM     10  H8  UNL     1       8.967   1.456   4.238  0.00  0.00    +0.000 HD
ENDBRANCH   7   9
ENDBRANCH   6   7
BRANCH   1  11
ATOM     11  O2  UNL     1       7.699   2.500   6.803  0.00  0.00    +0.000 OA
BRANCH  11  13
ATOM     12  C1  UNL     1       7.009   2.548   9.200  0.00  0.00    +0.000 C 
ATOM     13  C2  UNL     1       7.475   1.802   7.996  0.00  0.00    +0.000 C 
ATOM     14  O1  UNL     1       7.566   0.545   8.041  0.00  0.00    +0.000 OA
ENDBRANCH  11  13
ENDBRANCH   1  11
TORSDOF 4
ENDMDL
MODEL 3
REMARK VINA RESULT:    -4.695      1.831      3.753
REMARK INTER + INTRA:          -6.256
REMARK INTER:                  -5.544
REMARK INTRA:                  -0.712
REMARK UNBOUND:                -0.600
REMARK  Name = C:\Users\Bellamkonda Sowmya\Downloads\flask-backend\results\7edda6f4-dff8-4048-9f47-fe76d0f58936_ligand.pdb
REMARK  5 active torsions:
REMARK  status: ('A' for Active; 'I' for Inactive)
REMARK    1  A    between atoms: C1_1  and  C2_2
REMARK    2  A    between atoms: C2_2  and  O2_4
REMARK    3  A    between atoms: O2_4  and  C3_5
REMARK    4  A    between atoms: C8_10  and  C9_11
REMARK    5  A    between atoms: C9_11  and  O4_13
REMARK                            x       y       z     vdW  Elec       q    Type
REMARK                         _______ _______ _______ _____ _____    ______ ____
ROOT
ATOM      1  C3  UNL     1       5.972   2.438   6.562  0.00  0.00    +0.000 A 
ATOM      2  C4  UNL     1       5.822   2.485   7.963  0.00  0.00    +0.000 A 
ATOM      3  C5  UNL     1       4.680   3.044   8.537  0.00  0.00    +0.000 A 
ATOM      4  C6  UNL     1       3.669   3.554   7.726  0.00  0.00    +0.000 A 
ATOM      5  C7  UNL     1       3.791   3.499   6.337  0.00  0.00    +0.000 A 
ATOM      6  C8  UNL     1       4.935   2.937   5.735  0.00  0.00    +0.000 A 
ENDROOT
BRANCH   6   7
ATOM      7  C9  UNL     1       5.030   2.895   4.251  0.00  0.00    +0.000 C 
ATOM      8  O3  UNL     1       5.060   3.967   3.587  0.00  0.00    +0.000 OA
BRANCH   7   9
ATOM      9  O4  UNL     1       5.089   1.682   3.571  0.00  0.00    +0.000 OA
ATOM     10  H8  UNL     1       4.289   1.333   3.056  0.00  0.00    +0.000 HD
ENDBRANCH   7   9
ENDBRANCH   6   7
BRANCH   1  11
ATOM     11  O2  UNL     1       7.112   1.860   5.981  0.00  0.00    +0.000 OA
BRANCH  11  13
ATOM     12  C1  UNL     1       8.318  -0.177   6.769  0.00  0.00    +0.000 C 
ATOM     13  C2  UNL     1       7.348   0.486   5.851  0.00  0.00    +0.000 C 
ATOM     14  O1  UNL     1       6.683  -0.215   5.040  0.00  0.00    +0.000 OA
ENDBRANCH  11  13
ENDBRANCH   1  11
TORSDOF 4
ENDMDL
MODEL 4
REMARK VINA RESULT:    -4.655      2.167      3.846
REMARK INTER + INTRA:          -6.208
REMARK INTER:                  -5.705
REMARK INTRA:                  -0.503
REMARK UNBOUND:                -0.600
REMARK  Name = C:\Users\Bellamkonda Sowmya\Downloads\flask-backend\results\7edda6f4-dff8-4048-9f47-fe76d0f58936_ligand.pdb
REMARK  5 active torsions:
REMARK  status: ('A' for Active; 'I' for Inactive)
REMARK    1  A    between atoms: C1_1  and  C2_2
REMARK    2  A    between atoms: C2_2  and  O2_4
REMARK    3  A    between atoms: O2_4  and  C3_5
REMARK    4  A    between atoms: C8_10  and  C9_11
REMARK    5  A    between atoms: C9_11  and  O4_13
REMARK                            x       y       z     vdW  Elec       q    Type
REMARK                         _______ _______ _______ _____ _____    ______ ____
ROOT
ATOM      1  C3  UNL     1       6.007   2.080   5.879  0.00  0.00    +0.000 A 
ATOM      2  C4  UNL     1       5.744   1.312   4.728  0.00  0.00    +0.000 A 
ATOM      3  C5  UNL     1       5.204   1.905   3.586  0.00  0.00    +0.000 A 
ATOM      4  C6  UNL     1       4.928   3.270   3.572  0.00  0.00    +0.000 A 
ATOM      5  C7  UNL     1       5.199   4.050   4.696  0.00  0.00    +0.000 A 
ATOM      6  C8  UNL     1       5.746   3.473   5.860  0.00  0.00    +0.000 A 
ENDROOT
BRANCH   6   7
ATOM      7  C9  UNL     1       6.022   4.337   7.040  0.00  0.00    +0.000 C 
ATOM      8  O3  UNL     1       5.400   5.423   7.189  0.00  0.00    +0.000 OA
BRANCH   7   9
ATOM      9  O4  UNL     1       6.963   3.965   7.996  0.00  0.00    +0.000 OA
ATOM     10  H8  UNL     1       6.732   3.967   8.983  0.00  0.00    +0.000 HD
ENDBRANCH   7   9
ENDBRANCH   6   7
BRANCH   1  11
ATOM     11  O2  UNL     1       6.566   1.490   7.024  0.00  0.00    +0.000 OA
BRANCH  11  13
ATOM     12  C1  UNL     1       8.915   0.708   6.712  0.00  0.00    +0.000 C 
ATOM     13  C2  UNL     1       7.483   0.431   7.024  0.00  0.00    +0.000 C 
ATOM     14  O1  UNL     1       7.139  -0.729   7.380  0.00  0.00    +0.000 OA
ENDBRANCH  11  13
ENDBRANCH   1  11
TORSDOF 4
ENDMDL
MODEL 5
REMARK VINA RESULT:    -4.640      3.871      5.465
REMARK INTER + INTRA:          -6.190
REMARK INTER:                  -5.486
REMARK INTRA:                  -0.704
REMARK UNBOUND:                -0.600
REMARK  Name = C:\Users\Bellamkonda Sowmya\Downloads\flask-backend\results\7edda6f4-dff8-4048-9f47-fe76d0f58936_ligand.pdb
REMARK  5 active torsions:
REMARK  status: ('A' for Active; 'I' for Inactive)
REMARK    1  A    between atoms: C1_1  and  C2_2
REMARK    2  A    between atoms: C2_2  and  O2_4
REMARK    3  A    between atoms: O2_4  and  C3_5
REMARK    4  A    between atoms: C8_10  and  C9_11
REMARK    5  A    between atoms: C9_11  and  O4_13
REMARK                            x       y       z     vdW  Elec       q    Type
REMARK                         _______ _______ _______ _____ _____    ______ ____
ROOT
ATOM      1  C3  UNL     1       8.155   1.410   6.381  0.00  0.00    +0.000 A 
ATOM      2  C4  UNL     1       7.682   2.536   5.680  0.00  0.00    +0.000 A 
ATOM      3  C5  UNL     1       6.663   2.409   4.735  0.00  0.00    +0.000 A 
ATOM      4  C6  UNL     1       6.096   1.162   4.483  0.00  0.00    +0.000 A 
ATOM      5  C7  UNL     1       6.538   0.038   5.181  0.00  0.00    +0.000 A 
ATOM      6  C8  UNL     1       7.565   0.144   6.141  0.00  0.00    +0.000 A 
ENDROOT
BRANCH   6   7
ATOM      7  C9  UNL     1       8.011  -1.077   6.866  0.00  0.00    +0.000 C 
ATOM      8  O3  UNL     1       7.223  -1.670   7.652  0.00  0.00    +0.000 OA
BRANCH   7   9
ATOM      9  O4  UNL     1       9.295  -1.586   6.691  0.00  0.00    +0.000 OA
ATOM     10  H8  UNL     1       9.928  -1.683   7.476  0.00  0.00    +0.000 HD
ENDBRANCH   7   9
ENDBRANCH   6   7
BRANCH   1  11
ATOM     11  O2  UNL     1       9.169   1.537   7.344  0.00  0.00    +0.000 OA
BRANCH  11  13
ATOM     12  C1  UNL     1      11.223   2.952   7.279  0.00  0.00    +0.000 C 
ATOM     13  C2  UNL     1      10.538   1.644   7.070  0.00  0.00    +0.000 C 
ATOM     14  O1  UNL     1      11.218   0.632   6.747  0.00  0.00    +0.000 OA
ENDBRANCH  11  13
ENDBRANCH   1  11
TORSDOF 4
ENDMDL
MODEL 6
REMARK VINA RESULT:    -4.636      1.496      3.493
REMARK INTER + INTRA:          -6.184
REMARK INTER:                  -5.613
REMARK INTRA:                  -0.571
REMARK UNBOUND:                -0.600
REMARK  Name = C:\Users\Bellamkonda Sowmya\Downloads\flask-backend\results\7edda6f4-dff8-4048-9f47-fe76d0f58936_ligand.pdb
REMARK  5 active torsions:
REMARK  status: ('A' for Active; 'I' for Inactive)
REMARK    1  A    between atoms: C1_1  and  C2_2
REMARK    2  A    between atoms: C2_2  and  O2_4
REMARK    3  A    between atoms: O2_4  and  C3_5
REMARK    4  A    between atoms: C8_10  and  C9_11
REMARK    5  A    between atoms: C9_11  and  O4_13
REMARK                            x       y       z     vdW  Elec       q    Type
REMARK                         _______ _______ _______ _____ _____    ______ ____
ROOT
ATOM      1  C3  UNL     1       6.474   2.124   5.984  0.00  0.00    +0.000 A 
ATOM      2  C4  UNL     1       7.198   1.409   5.009  0.00  0.00    +0.000 A 
ATOM      3  C5  UNL     1       8.061   0.377   5.379  0.00  0.00    +0.000 A 
ATOM      4  C6  UNL     1       8.207   0.037   6.721  0.00  0.00    +0.000 A 
ATOM      5  C7  UNL     1       7.484   0.720   7.699  0.00  0.00    +0.000 A 
ATOM      6  C8  UNL     1       6.606   1.765   7.348  0.00  0.00    +0.000 A 
ENDROOT
BRANCH   6   7
ATOM      7  C9  UNL     1       5.851   2.472   8.419  0.00  0.00    +0.000 C 
ATOM      8  O3  UNL     1       6.468   3.053   9.351  0.00  0.00    +0.000 OA
BRANCH   7   9
ATOM      9  O4  UNL     1       4.459   2.506   8.411  0.00  0.00    +0.000 OA
ATOM     10  H8  UNL     1       3.945   2.604   7.543  0.00  0.00    +0.000 HD
ENDBRANCH   7   9
ENDBRANCH   6   7
BRANCH   1  11
ATOM     11  O2  UNL     1       5.593   3.152   5.613  0.00  0.00    +0.000 OA
BRANCH  11  13
ATOM     12  C1  UNL     1       3.271   2.448   5.030  0.00  0.00    +0.000 C 
ATOM     13  C2  UNL     1       4.583   3.045   4.648  0.00  0.00    +0.000 C 
ATOM     14  O1  UNL     1       4.730   3.535   3.495  0.00  0.00    +0.000 OA
ENDBRANCH  11  13
ENDBRANCH   1  11
TORSDOF 4
ENDMDL
MODEL 7
REMARK VINA RESULT:    -4.609      2.339      3.534
REMARK INTER + INTRA:          -6.152
REMARK INTER:                  -5.906
REMARK INTRA:                  -0.246
REMARK UNBOUND:                -0.600
REMARK  Name = C:\Users\Bellamkonda Sowmya\Downloads\flask-backend\results\7edda6f4-dff8-4048-9f47-fe76d0f58936_ligand.pdb
REMARK  5 active torsions:
REMARK  status: ('A' for Active; 'I' for Inactive)
REMARK    1  A    between atoms: C1_1  and  C2_2
REMARK    2  A    between atoms: C2_2  and  O2_4
REMARK    3  A    between atoms: O2_4  and  C3_5
REMARK    4  A    between atoms: C8_10  and  C9_11
REMARK    5  A    between atoms: C9_11  and  O4_13
REMARK                            x       y       z     vdW  Elec       q    Type
REMARK                         _______ _______ _______ _____ _____    ______ ____
ROOT
ATOM      1  C3  UNL     1       6.270   2.618   6.089  0.00  0.00    +0.000 A 
ATOM      2  C4  UNL     1       5.225   3.362   5.505  0.00  0.00    +0.000 A 
ATOM      3  C5  UNL     1       4.651   2.954   4.301  0.00  0.00    +0.000 A 
ATOM      4  C6  UNL     1       5.100   1.798   3.668  0.00  0.00    +0.000 A 
ATOM      5  C7  UNL     1       6.120   1.038   4.241  0.00  0.00    +0.000 A 
ATOM      6  C8  UNL     1       6.715   1.430   5.458  0.00  0.00    +0.000 A 
ENDROOT
BRANCH   6   7
ATOM      7  C9  UNL     1       7.800   0.595   6.039  0.00  0.00    +0.000 C 
ATOM      8  O3  UNL     1       7.533  -0.270   6.917  0.00  0.00    +0.000 OA
BRANCH   7   9
ATOM      9  O4  UNL     1       9.121   0.748   5.628  0.00  0.00    +0.000 OA
ATOM     10  H8  UNL     1       9.383   0.618   4.657  0.00  0.00    +0.000 HD
ENDBRANCH   7   9
ENDBRANCH   6   7
BRANCH   1  11
ATOM     11  O2  UNL     1       6.839   3.017   7.310  0.00  0.00    +0.000 OA
BRANCH  11  13
ATOM     12  C1  UNL     1       4.867   2.877   8.831  0.00  0.00    +0.000 C 
ATOM     13  C2  UNL     1       6.328   2.717   8.578  0.00  0.00    +0.000 C 
ATOM     14  O1  UNL     1       7.062   2.221   9.476  0.00  0.00    +0.000 OA
ENDBRANCH  11  13
ENDBRANCH   1  11
TORSDOF 4
ENDMDL
MODEL 8
REMARK VINA RESULT:    -4.466      1.727      3.118
REMARK INTER + INTRA:          -5.980
REMARK INTER:                  -5.241
REMARK INTRA:                  -0.739
REMARK UNBOUND:                -0.600
REMARK  Name = C:\Users\Bellamkonda Sowmya\Downloads\flask-backend\results\7edda6f4-dff8-4048-9f47-fe76d0f58936_ligand.pdb
REMARK  5 active torsions:
REMARK  status: ('A' for Active; 'I' for Inactive)
REMARK    1  A    between atoms: C1_1  and  C2_2
REMARK    2  A    between atoms: C2_2  and  O2_4
REMARK    3  A    between atoms: O2_4  and  C3_5
REMARK    4  A    between atoms: C8_10  and  C9_11
REMARK    5  A    between atoms: C9_11  and  O4_13
REMARK                            x       y       z     vdW  Elec       q    Type
REMARK                         _______ _______ _______ _____ _____    ______ ____
ROOT
ATOM      1  C3  UNL     1       5.820   2.559   6.079  0.00  0.00    +0.000 A 
ATOM      2  C4  UNL     1       5.064   2.371   4.904  0.00  0.00    +0.000 A 
ATOM      3  C5  UNL     1       5.440   1.411   3.964  0.00  0.00    +0.000 A 
ATOM      4  C6  UNL     1       6.564   0.620   4.185  0.00  0.00    +0.000 A 
ATOM      5  C7  UNL     1       7.313   0.778   5.351  0.00  0.00    +0.000 A 
ATOM      6  C8  UNL     1       6.952   1.741   6.315  0.00  0.00    +0.000 A 
ENDROOT
BRANCH   6   7
ATOM      7  C9  UNL     1       7.775   1.880   7.547  0.00  0.00    +0.000 C 
ATOM      8  O3  UNL     1       9.021   2.048   7.461  0.00  0.00    +0.000 OA
BRANCH   7   9
ATOM      9  O4  UNL     1       7.190   1.832   8.809  0.00  0.00    +0.000 OA
ATOM     10  H8  UNL     1       7.295   1.017   9.402  0.00  0.00    +0.000 HD
ENDBRANCH   7   9
ENDBRANCH   6   7
BRANCH   1  11
ATOM     11  O2  UNL     1       5.435   3.513   7.035  0.00  0.00    +0.000 OA
BRANCH  11  13
ATOM     12  C1  UNL     1       3.069   4.146   7.512  0.00  0.00    +0.000 C 
ATOM     13  C2  UNL     1       4.318   3.415   7.873  0.00  0.00    +0.000 C 
ATOM     14  O1  UNL     1       4.318   2.643   8.871  0.00  0.00    +0.000 OA
ENDBRANCH  11  13
ENDBRANCH   1  11
TORSDOF 4
ENDMDL
MODEL 9
REMARK VINA RESULT:    -4.409      2.569      4.196
REMARK INTER + INTRA:          -5.911
REMARK INTER:                  -5.364
REMARK INTRA:                  -0.547
REMARK UNBOUND:                -0.600
REMARK  Name = C:\Users\Bellamkonda Sowmya\Downloads\flask-backend\results\7edda6f4-dff8-4048-9f47-fe76d0f58936_ligand.pdb
REMARK  5 active torsions:
REMARK  status: ('A' for Active; 'I' for Inactive)
REMARK    1  A    between atoms: C1_1  and  C2_2
REMARK    2  A    between atoms: C2_2  and  O2_4
REMARK    3  A    between atoms: O2_4  and  C3_5
REMARK    4  A    between atoms: C8_10  and  C9_11
REMARK    5  A    between atoms: C9_11  and  O4_13
REMARK                            x       y       z     vdW  Elec       q    Type
REMARK                         _______ _______ _______ _____ _____    ______ ____
ROOT
ATOM      1  C3  UNL     1       6.421   2.017   6.906  0.00  0.00    +0.000 A 
ATOM      2  C4  UNL     1       5.720   2.855   7.797  0.00  0.00    +0.000 A 
ATOM      3  C5  UNL     1       6.224   3.117   9.071  0.00  0.00    +0.000 A 
ATOM      4  C6  UNL     1       7.435   2.558   9.472  0.00  0.00    +0.000 A 
ATOM      5  C7  UNL     1       8.152   1.741   8.597  0.00  0.00    +0.000 A 
ATOM      6  C8  UNL     1       7.663   1.464   7.305  0.00  0.00    +0.000 A 
ENDROOT
BRANCH   6   7
ATOM      7  C9  UNL     1       8.456   0.589   6.399  0.00  0.00    +0.000 C 
ATOM      8  O3  UNL     1       8.919  -0.505   6.821  0.00  0.00    +0.000 OA
BRANCH   7   9
ATOM      9  O4  UNL     1       8.699   0.957   5.079  0.00  0.00    +0.000 OA
ATOM     10  H8  UNL     1       9.469   0.553   4.558  0.00  0.00    +0.000 HD
ENDBRANCH   7   9
ENDBRANCH   6   7
BRANCH   1  11
ATOM     11  O2  UNL     1       5.924   1.764   5.617  0.00  0.00    +0.000 OA
BRANCH  11  13
ATOM     12  C1  UNL     1       5.952   3.826   4.213  0.00  0.00    +0.000 C 
ATOM     13  C2  UNL     1       5.221   2.680   4.826  0.00  0.00    +0.000 C 
ATOM     14  O1  UNL     1       4.005   2.498   4.543  0.00  0.00    +0.000 OA
ENDBRANCH  11  13
ENDBRANCH   1  11
TORSDOF 4
ENDMDL
