MODEL 1
REMARK VINA RESULT:    -4.217      0.000      0.000
REMARK INTER + INTRA:          -5.726
REMARK INTER:                  -5.079
REMARK INTRA:                  -0.647
REMARK UNBOUND:                -0.647
REMARK  Name = results/747ba49a-c62e-4c14-a280-8ff341a041f2_ligand.pdb
REMARK  5 active torsions:
REMARK  status: ('A' for Active; 'I' for Inactive)
REMARK    1  A    between atoms: C1_1  and  C2_2
REMARK    2  A    between atoms: C2_2  and  O2_4
REMARK    3  A    between atoms: O2_4  and  C3_5
REMARK    4  A    between atoms: C8_10  and  C9_11
REMARK    5  A    between atoms: C9_11  and  O4_13
REMARK                            x       y       z     vdW  Elec       q    Type
REMARK                         _______ _______ _______ _____ _____    ______ ____
ROOT
ATOM      1  C3  UNL     1      10.012  -3.982  -1.109  0.00  0.00    +0.000 A 
ATOM      2  C4  UNL     1       9.180  -4.811  -0.332  0.00  0.00    +0.000 A 
ATOM      3  C5  UNL     1       8.619  -5.966  -0.878  0.00  0.00    +0.000 A 
ATOM      4  C6  UNL     1       8.870  -6.304  -2.205  0.00  0.00    +0.000 A 
ATOM      5  C7  UNL     1       9.676  -5.484  -2.996  0.00  0.00    +0.000 A 
ATOM      6  C8  UNL     1      10.252  -4.313  -2.466  0.00  0.00    +0.000 A 
ENDROOT
BRANCH   6   7
ATOM      7  C9  UNL     1      11.103  -3.468  -3.345  0.00  0.00    +0.000 C 
ATOM      8  O3  UNL     1      12.271  -3.825  -3.655  0.00  0.00    +0.000 OA
BRANCH   7   9
ATOM      9  O4  UNL     1      10.614  -2.262  -3.839  0.00  0.00    +0.000 OA
ATOM     10  H8  UNL     1      10.965  -1.376  -3.494  0.00  0.00    +0.000 HD
ENDBRANCH   7   9
ENDBRANCH   6   7
BRANCH   1  11
ATOM     11  O2  UNL     1      10.568  -2.810  -0.567  0.00  0.00    +0.000 OA
BRANCH  11  13
ATOM     12  C1  UNL     1       9.691  -1.051   0.968  0.00  0.00    +0.000 C 
ATOM     13  C2  UNL     1       9.894  -1.594  -0.405  0.00  0.00    +0.000 C 
ATOM     14  O1  UNL     1       9.372  -1.003  -1.390  0.00  0.00    +0.000 OA
ENDBRANCH  11  13
ENDBRANCH   1  11
TORSDOF 4
ENDMDL
MODEL 2
REMARK VINA RESULT:    -4.142     13.822     14.846
REMARK INTER + INTRA:          -5.636
REMARK INTER:                  -5.004
REMARK INTRA:                  -0.632
REMARK UNBOUND:                -0.647
REMARK  Name = results/747ba49a-c62e-4c14-a280-8ff341a041f2_ligand.pdb
REMARK  5 active torsions:
REMARK  status: ('A' for Active; 'I' for Inactive)
REMARK    1  A    between atoms: C1_1  and  C2_2
REMARK    2  A    between atoms: C2_2  and  O2_4
REMARK    3  A    between atoms: O2_4  and  C3_5
REMARK    4  A    between atoms: C8_10  and  C9_11
REMARK    5  A    between atoms: C9_11  and  O4_13
REMARK                            x       y       z     vdW  Elec       q    Type
REMARK                         _______ _______ _______ _____ _____    ______ ____
ROOT
ATOM      1  C3  UNL     1      -4.569  -3.897   0.571  0.00  0.00    +0.000 A 
ATOM      2  C4  UNL     1      -4.940  -2.555   0.778  0.00  0.00    +0.000 A 
ATOM      3  C5  UNL     1      -4.573  -1.889   1.949  0.00  0.00    +0.000 A 
ATOM      4  C6  UNL     1      -3.842  -2.554   2.930  0.00  0.00    +0.000 A 
ATOM      5  C7  UNL     1      -3.482  -3.891   2.750  0.00  0.00    +0.000 A 
ATOM      6  C8  UNL     1      -3.843  -4.582   1.577  0.00  0.00    +0.000 A 
ENDROOT
BRANCH   6   7
ATOM      7  C9  UNL     1      -3.440  -6.006   1.428  0.00  0.00    +0.000 C 
ATOM      8  O3  UNL     1      -4.040  -6.919   2.056  0.00  0.00    +0.000 OA
BRANCH   7   9
ATOM      9  O4  UNL     1      -2.385  -6.348   0.585  0.00  0.00    +0.000 OA
ATOM     10  H8  UNL     1      -1.425  -6.165   0.851  0.00  0.00    +0.000 HD
ENDBRANCH   7   9
ENDBRANCH   6   7
BRANCH   1  11
ATOM     11  O2  UNL     1      -4.949  -4.576  -0.600  0.00  0.00    +0.000 OA
BRANCH  11  13
ATOM     12  C1  UNL     1      -4.755  -3.569  -2.874  0.00  0.00    +0.000 C 
ATOM     13  C2  UNL     1      -4.276  -4.516  -1.826  0.00  0.00    +0.000 C 
ATOM     14  O1  UNL     1      -3.338  -5.315  -2.093  0.00  0.00    +0.000 OA
ENDBRANCH  11  13
ENDBRANCH   1  11
TORSDOF 4
ENDMDL
MODEL 3
REMARK VINA RESULT:    -4.141     13.272     14.248
REMARK INTER + INTRA:          -5.636
REMARK INTER:                  -5.309
REMARK INTRA:                  -0.327
REMARK UNBOUND:                -0.647
REMARK  Name = results/747ba49a-c62e-4c14-a280-8ff341a041f2_ligand.pdb
REMARK  5 active torsions:
REMARK  status: ('A' for Active; 'I' for Inactive)
REMARK    1  A    between atoms: C1_1  and  C2_2
REMARK    2  A    between atoms: C2_2  and  O2_4
REMARK    3  A    between atoms: O2_4  and  C3_5
REMARK    4  A    between atoms: C8_10  and  C9_11
REMARK    5  A    between atoms: C9_11  and  O4_13
REMARK                            x       y       z     vdW  Elec       q    Type
REMARK                         _______ _______ _______ _____ _____    ______ ____
ROOT
ATOM      1  C3  UNL     1      -3.881  -4.138   0.605  0.00  0.00    +0.000 A 
ATOM      2  C4  UNL     1      -4.730  -3.024   0.451  0.00  0.00    +0.000 A 
ATOM      3  C5  UNL     1      -5.368  -2.780  -0.766  0.00  0.00    +0.000 A 
ATOM      4  C6  UNL     1      -5.160  -3.633  -1.846  0.00  0.00    +0.000 A 
ATOM      5  C7  UNL     1      -4.306  -4.730  -1.719  0.00  0.00    +0.000 A 
ATOM      6  C8  UNL     1      -3.652  -4.995  -0.500  0.00  0.00    +0.000 A 
ENDROOT
BRANCH   6   7
ATOM      7  C9  UNL     1      -2.750  -6.174  -0.409  0.00  0.00    +0.000 C 
ATOM      8  O3  UNL     1      -2.339  -6.758  -1.447  0.00  0.00    +0.000 OA
BRANCH   7   9
ATOM      9  O4  UNL     1      -2.345  -6.649   0.836  0.00  0.00    +0.000 OA
ATOM     10  H8  UNL     1      -1.656  -6.150   1.385  0.00  0.00    +0.000 HD
ENDBRANCH   7   9
ENDBRANCH   6   7
BRANCH   1  11
ATOM     11  O2  UNL     1      -3.225  -4.380   1.824  0.00  0.00    +0.000 OA
BRANCH  11  13
ATOM     12  C1  UNL     1      -2.715  -2.928   3.787  0.00  0.00    +0.000 C 
ATOM     13  C2  UNL     1      -3.617  -3.873   3.069  0.00  0.00    +0.000 C 
ATOM     14  O1  UNL     1      -4.669  -4.279   3.634  0.00  0.00    +0.000 OA
ENDBRANCH  11  13
ENDBRANCH   1  11
TORSDOF 4
ENDMDL
MODEL 4
REMARK VINA RESULT:    -4.054     14.176     15.169
REMARK INTER + INTRA:          -5.531
REMARK INTER:                  -4.902
REMARK INTRA:                  -0.629
REMARK UNBOUND:                -0.647
REMARK  Name = results/747ba49a-c62e-4c14-a280-8ff341a041f2_ligand.pdb
REMARK  5 active torsions:
REMARK  status: ('A' for Active; 'I' for Inactive)
REMARK    1  A    between atoms: C1_1  and  C2_2
REMARK    2  A    between atoms: C2_2  and  O2_4
REMARK    3  A    between atoms: O2_4  and  C3_5
REMARK    4  A    between atoms: C8_10  and  C9_11
REMARK    5  A    between atoms: C9_11  and  O4_13
REMARK                            x       y       z     vdW  Elec       q    Type
REMARK                         _______ _______ _______ _____ _____    ______ ____
ROOT
ATOM      1  C3  UNL     1      -3.764  -4.393   1.623  0.00  0.00    +0.000 A 
ATOM      2  C4  UNL     1      -3.338  -3.824   2.839  0.00  0.00    +0.000 A 
ATOM      3  C5  UNL     1      -3.702  -2.520   3.178  0.00  0.00    +0.000 A 
ATOM      4  C6  UNL     1      -4.483  -1.764   2.308  0.00  0.00    +0.000 A 
ATOM      5  C7  UNL     1      -4.897  -2.305   1.089  0.00  0.00    +0.000 A 
ATOM      6  C8  UNL     1      -4.542  -3.618   0.726  0.00  0.00    +0.000 A 
ENDROOT
BRANCH   6   7
ATOM      7  C9  UNL     1      -5.004  -4.154  -0.582  0.00  0.00    +0.000 C 
ATOM      8  O3  UNL     1      -4.711  -3.572  -1.661  0.00  0.00    +0.000 OA
BRANCH   7   9
ATOM      9  O4  UNL     1      -5.771  -5.315  -0.629  0.00  0.00    +0.000 OA
ATOM     10  H8  UNL     1      -6.059  -5.714  -1.515  0.00  0.00    +0.000 HD
ENDBRANCH   7   9
ENDBRANCH   6   7
BRANCH   1  11
ATOM     11  O2  UNL     1      -3.389  -5.701   1.270  0.00  0.00    +0.000 OA
BRANCH  11  13
ATOM     12  C1  UNL     1      -3.243  -8.150   1.722  0.00  0.00    +0.000 C 
ATOM     13  C2  UNL     1      -4.010  -6.872   1.721  0.00  0.00    +0.000 C 
ATOM     14  O1  UNL     1      -5.233  -6.881   2.030  0.00  0.00    +0.000 OA
ENDBRANCH  11  13
ENDBRANCH   1  11
TORSDOF 4
ENDMDL
MODEL 5
REMARK VINA RESULT:    -3.959      2.784      4.042
REMARK INTER + INTRA:          -5.417
REMARK INTER:                  -4.686
REMARK INTRA:                  -0.731
REMARK UNBOUND:                -0.647
REMARK  Name = results/747ba49a-c62e-4c14-a280-8ff341a041f2_ligand.pdb
REMARK  5 active torsions:
REMARK  status: ('A' for Active; 'I' for Inactive)
REMARK    1  A    between atoms: C1_1  and  C2_2
REMARK    2  A    between atoms: C2_2  and  O2_4
REMARK    3  A    between atoms: O2_4  and  C3_5
REMARK    4  A    between atoms: C8_10  and  C9_11
REMARK    5  A    between atoms: C9_11  and  O4_13
REMARK                            x       y       z     vdW  Elec       q    Type
REMARK                         _______ _______ _______ _____ _____    ______ ____
ROOT
ATOM      1  C3  UNL     1       9.058  -4.765  -1.463  0.00  0.00    +0.000 A 
ATOM      2  C4  UNL     1       9.593  -3.578  -0.924  0.00  0.00    +0.000 A 
ATOM      3  C5  UNL     1      10.552  -2.848  -1.627  0.00  0.00    +0.000 A 
ATOM      4  C6  UNL     1      11.000  -3.296  -2.867  0.00  0.00    +0.000 A 
ATOM      5  C7  UNL     1      10.496  -4.480  -3.408  0.00  0.00    +0.000 A 
ATOM      6  C8  UNL     1       9.527  -5.232  -2.715  0.00  0.00    +0.000 A 
ENDROOT
BRANCH   6   7
ATOM      7  C9  UNL     1       9.020  -6.489  -3.328  0.00  0.00    +0.000 C 
ATOM      8  O3  UNL     1       8.412  -6.473  -4.432  0.00  0.00    +0.000 OA
BRANCH   7   9
ATOM      9  O4  UNL     1       9.211  -7.707  -2.681  0.00  0.00    +0.000 OA
ATOM     10  H8  UNL     1       8.535  -8.456  -2.770  0.00  0.00    +0.000 HD
ENDBRANCH   7   9
ENDBRANCH   6   7
BRANCH   1  11
ATOM     11  O2  UNL     1       8.102  -5.510  -0.752  0.00  0.00    +0.000 OA
BRANCH  11  13
ATOM     12  C1  UNL     1       7.760  -5.911   1.686  0.00  0.00    +0.000 C 
ATOM     13  C2  UNL     1       8.362  -6.295   0.377  0.00  0.00    +0.000 C 
ATOM     14  O1  UNL     1       9.174  -7.259   0.327  0.00  0.00    +0.000 OA
ENDBRANCH  11  13
ENDBRANCH   1  11
TORSDOF 4
ENDMDL
MODEL 6
REMARK VINA RESULT:    -3.804      2.280      3.853
REMARK INTER + INTRA:          -5.230
REMARK INTER:                  -4.856
REMARK INTRA:                  -0.374
REMARK UNBOUND:                -0.647
REMARK  Name = results/747ba49a-c62e-4c14-a280-8ff341a041f2_ligand.pdb
REMARK  5 active torsions:
REMARK  status: ('A' for Active; 'I' for Inactive)
REMARK    1  A    between atoms: C1_1  and  C2_2
REMARK    2  A    between atoms: C2_2  and  O2_4
REMARK    3  A    between atoms: O2_4  and  C3_5
REMARK    4  A    between atoms: C8_10  and  C9_11
REMARK    5  A    between atoms: C9_11  and  O4_13
REMARK                            x       y       z     vdW  Elec       q    Type
REMARK                         _______ _______ _______ _____ _____    ______ ____
ROOT
ATOM      1  C3  UNL     1       9.026  -5.711  -1.837  0.00  0.00    +0.000 A 
ATOM      2  C4  UNL     1       9.538  -6.263  -3.027  0.00  0.00    +0.000 A 
ATOM      3  C5  UNL     1       9.703  -7.642  -3.156  0.00  0.00    +0.000 A 
ATOM      4  C6  UNL     1       9.373  -8.487  -2.100  0.00  0.00    +0.000 A 
ATOM      5  C7  UNL     1       8.883  -7.957  -0.905  0.00  0.00    +0.000 A 
ATOM      6  C8  UNL     1       8.708  -6.568  -0.753  0.00  0.00    +0.000 A 
ENDROOT
BRANCH   6   7
ATOM      7  C9  UNL     1       8.185  -6.045   0.538  0.00  0.00    +0.000 C 
ATOM      8  O3  UNL     1       8.963  -5.567   1.406  0.00  0.00    +0.000 OA
BRANCH   7   9
ATOM      9  O4  UNL     1       6.819  -6.079   0.802  0.00  0.00    +0.000 OA
ATOM     10  H8  UNL     1       6.417  -5.516   1.542  0.00  0.00    +0.000 HD
ENDBRANCH   7   9
ENDBRANCH   6   7
BRANCH   1  11
ATOM     11  O2  UNL     1       8.871  -4.321  -1.697  0.00  0.00    +0.000 OA
BRANCH  11  13
ATOM     12  C1  UNL     1      10.356  -2.876  -0.308  0.00  0.00    +0.000 C 
ATOM     13  C2  UNL     1       9.915  -3.391  -1.636  0.00  0.00    +0.000 C 
ATOM     14  O1  UNL     1      10.420  -2.910  -2.687  0.00  0.00    +0.000 OA
ENDBRANCH  11  13
ENDBRANCH   1  11
TORSDOF 4
ENDMDL
MODEL 7
REMARK VINA RESULT:    -3.784     14.256     15.274
REMARK INTER + INTRA:          -5.206
REMARK INTER:                  -4.500
REMARK INTRA:                  -0.706
REMARK UNBOUND:                -0.647
REMARK  Name = results/747ba49a-c62e-4c14-a280-8ff341a041f2_ligand.pdb
REMARK  5 active torsions:
REMARK  status: ('A' for Active; 'I' for Inactive)
REMARK    1  A    between atoms: C1_1  and  C2_2
REMARK    2  A    between atoms: C2_2  and  O2_4
REMARK    3  A    between atoms: O2_4  and  C3_5
REMARK    4  A    between atoms: C8_10  and  C9_11
REMARK    5  A    between atoms: C9_11  and  O4_13
REMARK                            x       y       z     vdW  Elec       q    Type
REMARK                         _______ _______ _______ _____ _____    ______ ____
ROOT
ATOM      1  C3  UNL     1      -4.079  -3.812   0.803  0.00  0.00    +0.000 A 
ATOM      2  C4  UNL     1      -4.663  -3.360  -0.397  0.00  0.00    +0.000 A 
ATOM      3  C5  UNL     1      -5.223  -2.084  -0.477  0.00  0.00    +0.000 A 
ATOM      4  C6  UNL     1      -5.220  -1.249   0.637  0.00  0.00    +0.000 A 
ATOM      5  C7  UNL     1      -4.664  -1.687   1.840  0.00  0.00    +0.000 A 
ATOM      6  C8  UNL     1      -4.093  -2.971   1.943  0.00  0.00    +0.000 A 
ENDROOT
BRANCH   6   7
ATOM      7  C9  UNL     1      -3.513  -3.398   3.245  0.00  0.00    +0.000 C 
ATOM      8  O3  UNL     1      -2.497  -2.824   3.721  0.00  0.00    +0.000 OA
BRANCH   7   9
ATOM      9  O4  UNL     1      -4.092  -4.445   3.956  0.00  0.00    +0.000 OA
ATOM     10  H8  UNL     1      -3.989  -5.404   3.647  0.00  0.00    +0.000 HD
ENDBRANCH   7   9
ENDBRANCH   6   7
BRANCH   1  11
ATOM     11  O2  UNL     1      -3.526  -5.101   0.893  0.00  0.00    +0.000 OA
BRANCH  11  13
ATOM     12  C1  UNL     1      -4.626  -7.066  -0.180  0.00  0.00    +0.000 C 
ATOM     13  C2  UNL     1      -4.255  -6.287   1.036  0.00  0.00    +0.000 C 
ATOM     14  O1  UNL     1      -4.686  -6.654   2.163  0.00  0.00    +0.000 OA
ENDBRANCH  11  13
ENDBRANCH   1  11
TORSDOF 4
ENDMDL
MODEL 8
REMARK VINA RESULT:    -3.735     15.323     16.539
REMARK INTER + INTRA:          -5.146
REMARK INTER:                  -4.418
REMARK INTRA:                  -0.728
REMARK UNBOUND:                -0.647
REMARK  Name = results/747ba49a-c62e-4c14-a280-8ff341a041f2_ligand.pdb
REMARK  5 active torsions:
REMARK  status: ('A' for Active; 'I' for Inactive)
REMARK    1  A    between atoms: C1_1  and  C2_2
REMARK    2  A    between atoms: C2_2  and  O2_4
REMARK    3  A    between atoms: O2_4  and  C3_5
REMARK    4  A    between atoms: C8_10  and  C9_11
REMARK    5  A    between atoms: C9_11  and  O4_13
REMARK                            x       y       z     vdW  Elec       q    Type
REMARK                         _______ _______ _______ _____ _____    ______ ____
ROOT
ATOM      1  C3  UNL     1      -5.603  -3.769   1.984  0.00  0.00    +0.000 A 
ATOM      2  C4  UNL     1      -5.579  -2.384   2.240  0.00  0.00    +0.000 A 
ATOM      3  C5  UNL     1      -4.461  -1.791   2.827  0.00  0.00    +0.000 A 
ATOM      4  C6  UNL     1      -3.360  -2.568   3.176  0.00  0.00    +0.000 A 
ATOM      5  C7  UNL     1      -3.374  -3.945   2.948  0.00  0.00    +0.000 A 
ATOM      6  C8  UNL     1      -4.492  -4.565   2.357  0.00  0.00    +0.000 A 
ENDROOT
BRANCH   6   7
ATOM      7  C9  UNL     1      -4.465  -6.036   2.134  0.00  0.00    +0.000 C 
ATOM      8  O3  UNL     1      -3.474  -6.591   1.587  0.00  0.00    +0.000 OA
BRANCH   7   9
ATOM      9  O4  UNL     1      -5.544  -6.822   2.531  0.00  0.00    +0.000 OA
ATOM     10  H8  UNL     1      -6.342  -6.412   3.001  0.00  0.00    +0.000 HD
ENDBRANCH   7   9
ENDBRANCH   6   7
BRANCH   1  11
ATOM     11  O2  UNL     1      -6.732  -4.374   1.406  0.00  0.00    +0.000 OA
BRANCH  11  13
ATOM     12  C1  UNL     1      -9.095  -3.594   1.584  0.00  0.00    +0.000 C 
ATOM     13  C2  UNL     1      -7.987  -4.495   2.014  0.00  0.00    +0.000 C 
ATOM     14  O1  UNL     1      -8.168  -5.281   2.983  0.00  0.00    +0.000 OA
ENDBRANCH  11  13
ENDBRANCH   1  11
TORSDOF 4
ENDMDL
MODEL 9
REMARK VINA RESULT:    -3.679      9.916     12.512
REMARK INTER + INTRA:          -5.079
REMARK INTER:                  -4.346
REMARK INTRA:                  -0.733
REMARK UNBOUND:                -0.647
REMARK  Name = results/747ba49a-c62e-4c14-a280-8ff341a041f2_ligand.pdb
REMARK  5 active torsions:
REMARK  status: ('A' for Active; 'I' for Inactive)
REMARK    1  A    between atoms: C1_1  and  C2_2
REMARK    2  A    between atoms: C2_2  and  O2_4
REMARK    3  A    between atoms: O2_4  and  C3_5
REMARK    4  A    between atoms: C8_10  and  C9_11
REMARK    5  A    between atoms: C9_11  and  O4_13
REMARK                            x       y       z     vdW  Elec       q    Type
REMARK                         _______ _______ _______ _____ _____    ______ ____
ROOT
ATOM      1  C3  UNL     1       4.651  -0.981   7.640  0.00  0.00    +0.000 A 
ATOM      2  C4  UNL     1       4.218  -0.439   6.414  0.00  0.00    +0.000 A 
ATOM      3  C5  UNL     1       3.463   0.734   6.382  0.00  0.00    +0.000 A 
ATOM      4  C6  UNL     1       3.121   1.377   7.569  0.00  0.00    +0.000 A 
ATOM      5  C7  UNL     1       3.524   0.844   8.795  0.00  0.00    +0.000 A 
ATOM      6  C8  UNL     1       4.286  -0.339   8.850  0.00  0.00    +0.000 A 
ENDROOT
BRANCH   6   7
ATOM      7  C9  UNL     1       4.693  -0.872  10.178  0.00  0.00    +0.000 C 
ATOM      8  O3  UNL     1       5.446  -0.208  10.940  0.00  0.00    +0.000 OA
BRANCH   7   9
ATOM      9  O4  UNL     1       4.241  -2.120  10.597  0.00  0.00    +0.000 OA
ATOM     10  H8  UNL     1       4.831  -2.729  11.152  0.00  0.00    +0.000 HD
ENDBRANCH   7   9
ENDBRANCH   6   7
BRANCH   1  11
ATOM     11  O2  UNL     1       5.399  -2.170   7.678  0.00  0.00    +0.000 OA
BRANCH  11  13
ATOM     12  C1  UNL     1       5.300  -4.183   6.209  0.00  0.00    +0.000 C 
ATOM     13  C2  UNL     1       4.892  -3.453   7.443  0.00  0.00    +0.000 C 
ATOM     14  O1  UNL     1       4.023  -3.959   8.205  0.00  0.00    +0.000 OA
ENDBRANCH  11  13
ENDBRANCH   1  11
TORSDOF 4
ENDMDL
