MODEL 1
REMARK VINA RESULT:    -2.933      0.000      0.000
REMARK INTER + INTRA:          -3.604
REMARK INTER:                  -3.448
REMARK INTRA:                  -0.157
REMARK UNBOUND:                -0.157
REMARK  Name = C:\DDRIVE\PROJECT\rmpr\authml\backend\results\ligand_1764514564053.pdb
REMARK  6 active torsions:
REMARK  status: ('A' for Active; 'I' for Inactive)
REMARK    1  A    between atoms: C_1  and  C_2
REMARK    2  A    between atoms: C_2  and  N_3
REMARK    3  A    between atoms: N_3  and  C_4
REMARK    4  A    between atoms: N_3  and  C_6
REMARK    5  A    between atoms: C_4  and  C_5
REMARK    6  A    between atoms: C_6  and  C_7
REMARK                            x       y       z     vdW  Elec       q    Type
REMARK                         _______ _______ _______ _____ _____    ______ ____
ROOT
ATOM      1  N   UNL     1      -4.486  -3.231   2.121  0.00  0.00    +0.000 NA
ENDROOT
BRANCH   1   3
ATOM      2  C   UNL     1      -3.469  -4.963   0.633  0.00  0.00    +0.000 C 
ATOM      3  C   UNL     1      -4.185  -3.619   0.734  0.00  0.00    +0.000 C 
ENDBRANCH   1   3
BRANCH   1   4
ATOM      4  C   UNL     1      -3.573  -3.815   3.118  0.00  0.00    +0.000 C 
ATOM      5  C   UNL     1      -2.576  -2.868   3.783  0.00  0.00    +0.000 C 
ENDBRANCH   1   4
BRANCH   1   6
ATOM      6  C   UNL     1      -4.609  -1.776   2.295  0.00  0.00    +0.000 C 
ATOM      7  C   UNL     1      -5.966  -1.353   2.862  0.00  0.00    +0.000 C 
ENDBRANCH   1   6
TORSDOF 3
ENDMDL
