MODEL 1
REMARK VINA RESULT:    -3.184      0.000      0.000
REMARK INTER + INTRA:          -3.884
REMARK INTER:                  -3.743
REMARK INTRA:                  -0.142
REMARK UNBOUND:                -0.142
REMARK  Name = results/a8eaff6e-d84d-471f-900f-f41d95f21268_ligand.pdb
REMARK  6 active torsions:
REMARK  status: ('A' for Active; 'I' for Inactive)
REMARK    1  A    between atoms: C1_1  and  C2_2
REMARK    2  A    between atoms: C2_2  and  N1_3
REMARK    3  A    between atoms: N1_3  and  C3_4
REMARK    4  A    between atoms: N1_3  and  C5_6
REMARK    5  A    between atoms: C3_4  and  C4_5
REMARK    6  A    between atoms: C5_6  and  C6_7
REMARK                            x       y       z     vdW  Elec       q    Type
REMARK                         _______ _______ _______ _____ _____    ______ ____
ROOT
ATOM      1  N1  UNL     1       4.761   2.160   4.278  0.00  0.00    +0.000 NA
ENDROOT
BRANCH   1   3
ATOM      2  C1  UNL     1       3.454   3.088   6.143  0.00  0.00    +0.000 C 
ATOM      3  C2  UNL     1       3.432   2.147   4.944  0.00  0.00    +0.000 C 
ENDBRANCH   1   3
BRANCH   1   4
ATOM      4  C3  UNL     1       5.830   1.666   5.175  0.00  0.00    +0.000 C 
ATOM      5  C4  UNL     1       6.414   0.350   4.661  0.00  0.00    +0.000 C 
ENDBRANCH   1   4
BRANCH   1   6
ATOM      6  C5  UNL     1       5.101   3.504   3.757  0.00  0.00    +0.000 C 
ATOM      7  C6  UNL     1       6.460   3.967   4.283  0.00  0.00    +0.000 C 
ENDBRANCH   1   6
TORSDOF 3
ENDMDL
MODEL 2
REMARK VINA RESULT:    -3.165      0.065      3.005
REMARK INTER + INTRA:          -3.861
REMARK INTER:                  -3.719
REMARK INTRA:                  -0.142
REMARK UNBOUND:                -0.142
REMARK  Name = results/a8eaff6e-d84d-471f-900f-f41d95f21268_ligand.pdb
REMARK  6 active torsions:
REMARK  status: ('A' for Active; 'I' for Inactive)
REMARK    1  A    between atoms: C1_1  and  C2_2
REMARK    2  A    between atoms: C2_2  and  N1_3
REMARK    3  A    between atoms: N1_3  and  C3_4
REMARK    4  A    between atoms: N1_3  and  C5_6
REMARK    5  A    between atoms: C3_4  and  C4_5
REMARK    6  A    between atoms: C5_6  and  C6_7
REMARK                            x       y       z     vdW  Elec       q    Type
REMARK                         _______ _______ _______ _____ _____    ______ ____
ROOT
ATOM      1  N1  UNL     1       4.803   2.145   4.270  0.00  0.00    +0.000 NA
ENDROOT
BRANCH   1   3
ATOM      2  C1  UNL     1       6.476   3.944   4.364  0.00  0.00    +0.000 C 
ATOM      3  C2  UNL     1       5.133   3.512   3.788  0.00  0.00    +0.000 C 
ENDBRANCH   1   3
BRANCH   1   4
ATOM      4  C3  UNL     1       3.468   2.095   4.908  0.00  0.00    +0.000 C 
ATOM      5  C4  UNL     1       3.385   3.066   6.086  0.00  0.00    +0.000 C 
ENDBRANCH   1   4
BRANCH   1   6
ATOM      6  C5  UNL     1       5.838   1.623   5.192  0.00  0.00    +0.000 C 
ATOM      7  C6  UNL     1       6.423   0.310   4.672  0.00  0.00    +0.000 C 
ENDBRANCH   1   6
TORSDOF 3
ENDMDL
MODEL 3
REMARK VINA RESULT:    -3.160      0.092      3.009
REMARK INTER + INTRA:          -3.855
REMARK INTER:                  -3.743
REMARK INTRA:                  -0.112
REMARK UNBOUND:                -0.142
REMARK  Name = results/a8eaff6e-d84d-471f-900f-f41d95f21268_ligand.pdb
REMARK  6 active torsions:
REMARK  status: ('A' for Active; 'I' for Inactive)
REMARK    1  A    between atoms: C1_1  and  C2_2
REMARK    2  A    between atoms: C2_2  and  N1_3
REMARK    3  A    between atoms: N1_3  and  C3_4
REMARK    4  A    between atoms: N1_3  and  C5_6
REMARK    5  A    between atoms: C3_4  and  C4_5
REMARK    6  A    between atoms: C5_6  and  C6_7
REMARK                            x       y       z     vdW  Elec       q    Type
REMARK                         _______ _______ _______ _____ _____    ______ ____
ROOT
ATOM      1  N1  UNL     1       4.764   2.150   4.265  0.00  0.00    +0.000 NA
ENDROOT
BRANCH   1   3
ATOM      2  C1  UNL     1       6.440   0.362   4.468  0.00  0.00    +0.000 C 
ATOM      3  C2  UNL     1       5.813   1.574   5.147  0.00  0.00    +0.000 C 
ENDBRANCH   1   3
BRANCH   1   4
ATOM      4  C3  UNL     1       5.117   3.515   3.809  0.00  0.00    +0.000 C 
ATOM      5  C4  UNL     1       6.476   3.944   4.362  0.00  0.00    +0.000 C 
ENDBRANCH   1   4
BRANCH   1   6
ATOM      6  C5  UNL     1       3.436   2.150   4.920  0.00  0.00    +0.000 C 
ATOM      7  C6  UNL     1       3.421   3.085   6.129  0.00  0.00    +0.000 C 
ENDBRANCH   1   6
TORSDOF 3
ENDMDL
MODEL 4
REMARK VINA RESULT:    -3.118      1.550      2.984
REMARK INTER + INTRA:          -3.807
REMARK INTER:                  -3.654
REMARK INTRA:                  -0.153
REMARK UNBOUND:                -0.142
REMARK  Name = results/a8eaff6e-d84d-471f-900f-f41d95f21268_ligand.pdb
REMARK  6 active torsions:
REMARK  status: ('A' for Active; 'I' for Inactive)
REMARK    1  A    between atoms: C1_1  and  C2_2
REMARK    2  A    between atoms: C2_2  and  N1_3
REMARK    3  A    between atoms: N1_3  and  C3_4
REMARK    4  A    between atoms: N1_3  and  C5_6
REMARK    5  A    between atoms: C3_4  and  C4_5
REMARK    6  A    between atoms: C5_6  and  C6_7
REMARK                            x       y       z     vdW  Elec       q    Type
REMARK                         _______ _______ _______ _____ _____    ______ ____
ROOT
ATOM      1  N1  UNL     1       5.757   2.837   5.358  0.00  0.00    +0.000 NA
ENDROOT
BRANCH   1   3
ATOM      2  C1  UNL     1       7.259   1.071   4.538  0.00  0.00    +0.000 C 
ATOM      3  C2  UNL     1       7.175   2.499   5.062  0.00  0.00    +0.000 C 
ENDBRANCH   1   3
BRANCH   1   4
ATOM      4  C3  UNL     1       4.818   2.022   4.553  0.00  0.00    +0.000 C 
ATOM      5  C4  UNL     1       3.370   2.288   4.963  0.00  0.00    +0.000 C 
ENDBRANCH   1   4
BRANCH   1   6
ATOM      6  C5  UNL     1       5.485   4.280   5.167  0.00  0.00    +0.000 C 
ATOM      7  C6  UNL     1       5.462   5.015   6.507  0.00  0.00    +0.000 C 
ENDBRANCH   1   6
TORSDOF 3
ENDMDL
MODEL 5
REMARK VINA RESULT:    -3.104      1.402      2.319
REMARK INTER + INTRA:          -3.790
REMARK INTER:                  -3.636
REMARK INTRA:                  -0.154
REMARK UNBOUND:                -0.142
REMARK  Name = results/a8eaff6e-d84d-471f-900f-f41d95f21268_ligand.pdb
REMARK  6 active torsions:
REMARK  status: ('A' for Active; 'I' for Inactive)
REMARK    1  A    between atoms: C1_1  and  C2_2
REMARK    2  A    between atoms: C2_2  and  N1_3
REMARK    3  A    between atoms: N1_3  and  C3_4
REMARK    4  A    between atoms: N1_3  and  C5_6
REMARK    5  A    between atoms: C3_4  and  C4_5
REMARK    6  A    between atoms: C5_6  and  C6_7
REMARK                            x       y       z     vdW  Elec       q    Type
REMARK                         _______ _______ _______ _____ _____    ______ ____
ROOT
ATOM      1  N1  UNL     1       5.684   2.761   5.270  0.00  0.00    +0.000 NA
ENDROOT
BRANCH   1   3
ATOM      2  C1  UNL     1       5.478   4.936   6.399  0.00  0.00    +0.000 C 
ATOM      3  C2  UNL     1       5.708   4.234   5.067  0.00  0.00    +0.000 C 
ENDBRANCH   1   3
BRANCH   1   4
ATOM      4  C3  UNL     1       7.015   2.153   5.043  0.00  0.00    +0.000 C 
ATOM      5  C4  UNL     1       6.885   0.754   4.441  0.00  0.00    +0.000 C 
ENDBRANCH   1   4
BRANCH   1   6
ATOM      6  C5  UNL     1       4.664   2.106   4.419  0.00  0.00    +0.000 C 
ATOM      7  C6  UNL     1       3.268   2.262   5.019  0.00  0.00    +0.000 C 
ENDBRANCH   1   6
TORSDOF 3
ENDMDL
MODEL 6
REMARK VINA RESULT:    -3.094      1.699      2.827
REMARK INTER + INTRA:          -3.778
REMARK INTER:                  -3.576
REMARK INTRA:                  -0.203
REMARK UNBOUND:                -0.142
REMARK  Name = results/a8eaff6e-d84d-471f-900f-f41d95f21268_ligand.pdb
REMARK  6 active torsions:
REMARK  status: ('A' for Active; 'I' for Inactive)
REMARK    1  A    between atoms: C1_1  and  C2_2
REMARK    2  A    between atoms: C2_2  and  N1_3
REMARK    3  A    between atoms: N1_3  and  C3_4
REMARK    4  A    between atoms: N1_3  and  C5_6
REMARK    5  A    between atoms: C3_4  and  C4_5
REMARK    6  A    between atoms: C5_6  and  C6_7
REMARK                            x       y       z     vdW  Elec       q    Type
REMARK                         _______ _______ _______ _____ _____    ______ ____
ROOT
ATOM      1  N1  UNL     1       6.876   2.492   4.761  0.00  0.00    +0.000 NA
ENDROOT
BRANCH   1   3
ATOM      2  C1  UNL     1       6.788   0.035   4.724  0.00  0.00    +0.000 C 
ATOM      3  C2  UNL     1       5.992   1.319   4.529  0.00  0.00    +0.000 C 
ENDBRANCH   1   3
BRANCH   1   4
ATOM      4  C3  UNL     1       7.343   2.559   6.165  0.00  0.00    +0.000 C 
ATOM      5  C4  UNL     1       6.189   2.883   7.113  0.00  0.00    +0.000 C 
ENDBRANCH   1   4
BRANCH   1   6
ATOM      6  C5  UNL     1       6.217   3.761   4.374  0.00  0.00    +0.000 C 
ATOM      7  C6  UNL     1       4.938   3.495   3.581  0.00  0.00    +0.000 C 
ENDBRANCH   1   6
TORSDOF 3
ENDMDL
MODEL 7
REMARK VINA RESULT:    -3.090      1.738      2.560
REMARK INTER + INTRA:          -3.774
REMARK INTER:                  -3.572
REMARK INTRA:                  -0.202
REMARK UNBOUND:                -0.142
REMARK  Name = results/a8eaff6e-d84d-471f-900f-f41d95f21268_ligand.pdb
REMARK  6 active torsions:
REMARK  status: ('A' for Active; 'I' for Inactive)
REMARK    1  A    between atoms: C1_1  and  C2_2
REMARK    2  A    between atoms: C2_2  and  N1_3
REMARK    3  A    between atoms: N1_3  and  C3_4
REMARK    4  A    between atoms: N1_3  and  C5_6
REMARK    5  A    between atoms: C3_4  and  C4_5
REMARK    6  A    between atoms: C5_6  and  C6_7
REMARK                            x       y       z     vdW  Elec       q    Type
REMARK                         _______ _______ _______ _____ _____    ______ ____
ROOT
ATOM      1  N1  UNL     1       6.888   2.523   4.739  0.00  0.00    +0.000 NA
ENDROOT
BRANCH   1   3
ATOM      2  C1  UNL     1       4.944   3.456   3.559  0.00  0.00    +0.000 C 
ATOM      3  C2  UNL     1       6.131   3.771   4.461  0.00  0.00    +0.000 C 
ENDBRANCH   1   3
BRANCH   1   4
ATOM      4  C3  UNL     1       6.097   1.314   4.414  0.00  0.00    +0.000 C 
ATOM      5  C4  UNL     1       6.841   0.043   4.823  0.00  0.00    +0.000 C 
ENDBRANCH   1   4
BRANCH   1   6
ATOM      6  C5  UNL     1       7.362   2.469   6.142  0.00  0.00    +0.000 C 
ATOM      7  C6  UNL     1       6.304   3.017   7.099  0.00  0.00    +0.000 C 
ENDBRANCH   1   6
TORSDOF 3
ENDMDL
MODEL 8
REMARK VINA RESULT:    -3.089      1.561      2.804
REMARK INTER + INTRA:          -3.773
REMARK INTER:                  -3.619
REMARK INTRA:                  -0.154
REMARK UNBOUND:                -0.142
REMARK  Name = results/a8eaff6e-d84d-471f-900f-f41d95f21268_ligand.pdb
REMARK  6 active torsions:
REMARK  status: ('A' for Active; 'I' for Inactive)
REMARK    1  A    between atoms: C1_1  and  C2_2
REMARK    2  A    between atoms: C2_2  and  N1_3
REMARK    3  A    between atoms: N1_3  and  C3_4
REMARK    4  A    between atoms: N1_3  and  C5_6
REMARK    5  A    between atoms: C3_4  and  C4_5
REMARK    6  A    between atoms: C5_6  and  C6_7
REMARK                            x       y       z     vdW  Elec       q    Type
REMARK                         _______ _______ _______ _____ _____    ______ ____
ROOT
ATOM      1  N1  UNL     1       5.621   2.912   5.349  0.00  0.00    +0.000 NA
ENDROOT
BRANCH   1   3
ATOM      2  C1  UNL     1       3.241   2.354   5.075  0.00  0.00    +0.000 C 
ATOM      3  C2  UNL     1       4.648   2.144   4.528  0.00  0.00    +0.000 C 
ENDBRANCH   1   3
BRANCH   1   4
ATOM      4  C3  UNL     1       5.423   4.373   5.213  0.00  0.00    +0.000 C 
ATOM      5  C4  UNL     1       5.457   5.061   6.578  0.00  0.00    +0.000 C 
ENDBRANCH   1   4
BRANCH   1   6
ATOM      6  C5  UNL     1       7.020   2.547   5.026  0.00  0.00    +0.000 C 
ATOM      7  C6  UNL     1       7.112   1.099   4.545  0.00  0.00    +0.000 C 
ENDBRANCH   1   6
TORSDOF 3
ENDMDL
MODEL 9
REMARK VINA RESULT:    -3.077      1.715      3.157
REMARK INTER + INTRA:          -3.758
REMARK INTER:                  -3.555
REMARK INTRA:                  -0.203
REMARK UNBOUND:                -0.142
REMARK  Name = results/a8eaff6e-d84d-471f-900f-f41d95f21268_ligand.pdb
REMARK  6 active torsions:
REMARK  status: ('A' for Active; 'I' for Inactive)
REMARK    1  A    between atoms: C1_1  and  C2_2
REMARK    2  A    between atoms: C2_2  and  N1_3
REMARK    3  A    between atoms: N1_3  and  C3_4
REMARK    4  A    between atoms: N1_3  and  C5_6
REMARK    5  A    between atoms: C3_4  and  C4_5
REMARK    6  A    between atoms: C5_6  and  C6_7
REMARK                            x       y       z     vdW  Elec       q    Type
REMARK                         _______ _______ _______ _____ _____    ______ ____
ROOT
ATOM      1  N1  UNL     1       6.877   2.537   4.788  0.00  0.00    +0.000 NA
ENDROOT
BRANCH   1   3
ATOM      2  C1  UNL     1       6.165   2.951   7.105  0.00  0.00    +0.000 C 
ATOM      3  C2  UNL     1       7.292   2.447   6.212  0.00  0.00    +0.000 C 
ENDBRANCH   1   3
BRANCH   1   4
ATOM      4  C3  UNL     1       6.123   3.781   4.512  0.00  0.00    +0.000 C 
ATOM      5  C4  UNL     1       4.953   3.517   3.564  0.00  0.00    +0.000 C 
ENDBRANCH   1   4
BRANCH   1   6
ATOM      6  C5  UNL     1       6.092   1.353   4.368  0.00  0.00    +0.000 C 
ATOM      7  C6  UNL     1       6.808   0.058   4.749  0.00  0.00    +0.000 C 
ENDBRANCH   1   6
TORSDOF 3
ENDMDL
