MODEL 1
REMARK VINA RESULT:    -3.181      0.000      0.000
REMARK INTER + INTRA:          -3.874
REMARK INTER:                  -3.739
REMARK INTRA:                  -0.135
REMARK UNBOUND:                -0.135
REMARK  Name = C:\Users\Bellamkonda Sowmya\Downloads\flask-backend\results\792aa940-0d82-4d61-bb40-b4a5f47b73d7_ligand.pdb
REMARK  6 active torsions:
REMARK  status: ('A' for Active; 'I' for Inactive)
REMARK    1  A    between atoms: C1_1  and  C2_2
REMARK    2  A    between atoms: C2_2  and  N1_3
REMARK    3  A    between atoms: N1_3  and  C3_4
REMARK    4  A    between atoms: N1_3  and  C5_6
REMARK    5  A    between atoms: C3_4  and  C4_5
REMARK    6  A    between atoms: C5_6  and  C6_7
REMARK                            x       y       z     vdW  Elec       q    Type
REMARK                         _______ _______ _______ _____ _____    ______ ____
ROOT
ATOM      1  N1  UNL     1       4.800   2.127   4.251  0.00  0.00    +0.000 NA
ENDROOT
BRANCH   1   3
ATOM      2  C1  UNL     1       3.435   3.045   6.079  0.00  0.00    +0.000 C 
ATOM      3  C2  UNL     1       3.470   2.066   4.911  0.00  0.00    +0.000 C 
ENDBRANCH   1   3
BRANCH   1   4
ATOM      4  C3  UNL     1       5.877   1.627   5.135  0.00  0.00    +0.000 C 
ATOM      5  C4  UNL     1       6.486   0.337   4.584  0.00  0.00    +0.000 C 
ENDBRANCH   1   4
BRANCH   1   6
ATOM      6  C5  UNL     1       5.115   3.494   3.775  0.00  0.00    +0.000 C 
ATOM      7  C6  UNL     1       6.477   3.955   4.292  0.00  0.00    +0.000 C 
ENDBRANCH   1   6
TORSDOF 3
ENDMDL
MODEL 2
REMARK VINA RESULT:    -3.154      0.064      3.003
REMARK INTER + INTRA:          -3.843
REMARK INTER:                  -3.674
REMARK INTRA:                  -0.169
REMARK UNBOUND:                -0.135
REMARK  Name = C:\Users\Bellamkonda Sowmya\Downloads\flask-backend\results\792aa940-0d82-4d61-bb40-b4a5f47b73d7_ligand.pdb
REMARK  6 active torsions:
REMARK  status: ('A' for Active; 'I' for Inactive)
REMARK    1  A    between atoms: C1_1  and  C2_2
REMARK    2  A    between atoms: C2_2  and  N1_3
REMARK    3  A    between atoms: N1_3  and  C3_4
REMARK    4  A    between atoms: N1_3  and  C5_6
REMARK    5  A    between atoms: C3_4  and  C4_5
REMARK    6  A    between atoms: C5_6  and  C6_7
REMARK                            x       y       z     vdW  Elec       q    Type
REMARK                         _______ _______ _______ _____ _____    ______ ____
ROOT
ATOM      1  N1  UNL     1       4.840   2.135   4.289  0.00  0.00    +0.000 NA
ENDROOT
BRANCH   1   3
ATOM      2  C1  UNL     1       6.434   0.306   4.692  0.00  0.00    +0.000 C 
ATOM      3  C2  UNL     1       5.900   1.639   5.205  0.00  0.00    +0.000 C 
ENDBRANCH   1   3
BRANCH   1   4
ATOM      4  C3  UNL     1       5.130   3.503   3.801  0.00  0.00    +0.000 C 
ATOM      5  C4  UNL     1       6.505   3.975   4.275  0.00  0.00    +0.000 C 
ENDBRANCH   1   4
BRANCH   1   6
ATOM      6  C5  UNL     1       3.501   2.083   4.919  0.00  0.00    +0.000 C 
ATOM      7  C6  UNL     1       3.408   3.062   6.089  0.00  0.00    +0.000 C 
ENDBRANCH   1   6
TORSDOF 3
ENDMDL
MODEL 3
REMARK VINA RESULT:    -3.140      1.471      2.345
REMARK INTER + INTRA:          -3.825
REMARK INTER:                  -3.678
REMARK INTRA:                  -0.147
REMARK UNBOUND:                -0.135
REMARK  Name = C:\Users\Bellamkonda Sowmya\Downloads\flask-backend\results\792aa940-0d82-4d61-bb40-b4a5f47b73d7_ligand.pdb
REMARK  6 active torsions:
REMARK  status: ('A' for Active; 'I' for Inactive)
REMARK    1  A    between atoms: C1_1  and  C2_2
REMARK    2  A    between atoms: C2_2  and  N1_3
REMARK    3  A    between atoms: N1_3  and  C3_4
REMARK    4  A    between atoms: N1_3  and  C5_6
REMARK    5  A    between atoms: C3_4  and  C4_5
REMARK    6  A    between atoms: C5_6  and  C6_7
REMARK                            x       y       z     vdW  Elec       q    Type
REMARK                         _______ _______ _______ _____ _____    ______ ____
ROOT
ATOM      1  N1  UNL     1       5.726   2.786   5.265  0.00  0.00    +0.000 NA
ENDROOT
BRANCH   1   3
ATOM      2  C1  UNL     1       5.486   4.952   6.404  0.00  0.00    +0.000 C 
ATOM      3  C2  UNL     1       5.500   4.241   5.057  0.00  0.00    +0.000 C 
ENDBRANCH   1   3
BRANCH   1   4
ATOM      4  C3  UNL     1       7.103   2.385   4.896  0.00  0.00    +0.000 C 
ATOM      5  C4  UNL     1       7.149   0.923   4.453  0.00  0.00    +0.000 C 
ENDBRANCH   1   4
BRANCH   1   6
ATOM      6  C5  UNL     1       4.734   1.966   4.533  0.00  0.00    +0.000 C 
ATOM      7  C6  UNL     1       3.313   2.270   5.007  0.00  0.00    +0.000 C 
ENDBRANCH   1   6
TORSDOF 3
ENDMDL
MODEL 4
REMARK VINA RESULT:    -3.127      1.435      2.787
REMARK INTER + INTRA:          -3.810
REMARK INTER:                  -3.657
REMARK INTRA:                  -0.153
REMARK UNBOUND:                -0.135
REMARK  Name = C:\Users\Bellamkonda Sowmya\Downloads\flask-backend\results\792aa940-0d82-4d61-bb40-b4a5f47b73d7_ligand.pdb
REMARK  6 active torsions:
REMARK  status: ('A' for Active; 'I' for Inactive)
REMARK    1  A    between atoms: C1_1  and  C2_2
REMARK    2  A    between atoms: C2_2  and  N1_3
REMARK    3  A    between atoms: N1_3  and  C3_4
REMARK    4  A    between atoms: N1_3  and  C5_6
REMARK    5  A    between atoms: C3_4  and  C4_5
REMARK    6  A    between atoms: C5_6  and  C6_7
REMARK                            x       y       z     vdW  Elec       q    Type
REMARK                         _______ _______ _______ _____ _____    ______ ____
ROOT
ATOM      1  N1  UNL     1       5.672   2.815   5.168  0.00  0.00    +0.000 NA
ENDROOT
BRANCH   1   3
ATOM      2  C1  UNL     1       3.277   2.290   4.984  0.00  0.00    +0.000 C 
ATOM      3  C2  UNL     1       4.647   2.135   4.334  0.00  0.00    +0.000 C 
ENDBRANCH   1   3
BRANCH   1   4
ATOM      4  C3  UNL     1       5.590   4.289   5.046  0.00  0.00    +0.000 C 
ATOM      5  C4  UNL     1       5.497   4.949   6.422  0.00  0.00    +0.000 C 
ENDBRANCH   1   4
BRANCH   1   6
ATOM      6  C5  UNL     1       7.040   2.345   4.848  0.00  0.00    +0.000 C 
ATOM      7  C6  UNL     1       7.030   0.876   4.426  0.00  0.00    +0.000 C 
ENDBRANCH   1   6
TORSDOF 3
ENDMDL
MODEL 5
REMARK VINA RESULT:    -3.113      1.574      2.993
REMARK INTER + INTRA:          -3.794
REMARK INTER:                  -3.641
REMARK INTRA:                  -0.152
REMARK UNBOUND:                -0.135
REMARK  Name = C:\Users\Bellamkonda Sowmya\Downloads\flask-backend\results\792aa940-0d82-4d61-bb40-b4a5f47b73d7_ligand.pdb
REMARK  6 active torsions:
REMARK  status: ('A' for Active; 'I' for Inactive)
REMARK    1  A    between atoms: C1_1  and  C2_2
REMARK    2  A    between atoms: C2_2  and  N1_3
REMARK    3  A    between atoms: N1_3  and  C3_4
REMARK    4  A    between atoms: N1_3  and  C5_6
REMARK    5  A    between atoms: C3_4  and  C4_5
REMARK    6  A    between atoms: C5_6  and  C6_7
REMARK                            x       y       z     vdW  Elec       q    Type
REMARK                         _______ _______ _______ _____ _____    ______ ____
ROOT
ATOM      1  N1  UNL     1       5.745   2.859   5.370  0.00  0.00    +0.000 NA
ENDROOT
BRANCH   1   3
ATOM      2  C1  UNL     1       7.281   1.120   4.557  0.00  0.00    +0.000 C 
ATOM      3  C2  UNL     1       7.161   2.563   5.032  0.00  0.00    +0.000 C 
ENDBRANCH   1   3
BRANCH   1   4
ATOM      4  C3  UNL     1       4.806   2.018   4.593  0.00  0.00    +0.000 C 
ATOM      5  C4  UNL     1       3.357   2.303   4.988  0.00  0.00    +0.000 C 
ENDBRANCH   1   4
BRANCH   1   6
ATOM      6  C5  UNL     1       5.425   4.294   5.189  0.00  0.00    +0.000 C 
ATOM      7  C6  UNL     1       5.460   5.036   6.525  0.00  0.00    +0.000 C 
ENDBRANCH   1   6
TORSDOF 3
ENDMDL
MODEL 6
REMARK VINA RESULT:    -3.110      1.715      3.185
REMARK INTER + INTRA:          -3.791
REMARK INTER:                  -3.587
REMARK INTRA:                  -0.204
REMARK UNBOUND:                -0.135
REMARK  Name = C:\Users\Bellamkonda Sowmya\Downloads\flask-backend\results\792aa940-0d82-4d61-bb40-b4a5f47b73d7_ligand.pdb
REMARK  6 active torsions:
REMARK  status: ('A' for Active; 'I' for Inactive)
REMARK    1  A    between atoms: C1_1  and  C2_2
REMARK    2  A    between atoms: C2_2  and  N1_3
REMARK    3  A    between atoms: N1_3  and  C3_4
REMARK    4  A    between atoms: N1_3  and  C5_6
REMARK    5  A    between atoms: C3_4  and  C4_5
REMARK    6  A    between atoms: C5_6  and  C6_7
REMARK                            x       y       z     vdW  Elec       q    Type
REMARK                         _______ _______ _______ _____ _____    ______ ____
ROOT
ATOM      1  N1  UNL     1       6.908   2.505   4.735  0.00  0.00    +0.000 NA
ENDROOT
BRANCH   1   3
ATOM      2  C1  UNL     1       6.246   2.943   7.062  0.00  0.00    +0.000 C 
ATOM      3  C2  UNL     1       7.394   2.554   6.139  0.00  0.00    +0.000 C 
ENDBRANCH   1   3
BRANCH   1   4
ATOM      4  C3  UNL     1       6.214   3.755   4.349  0.00  0.00    +0.000 C 
ATOM      5  C4  UNL     1       4.948   3.455   3.546  0.00  0.00    +0.000 C 
ENDBRANCH   1   4
BRANCH   1   6
ATOM      6  C5  UNL     1       6.034   1.333   4.497  0.00  0.00    +0.000 C 
ATOM      7  C6  UNL     1       6.791   0.027   4.734  0.00  0.00    +0.000 C 
ENDBRANCH   1   6
TORSDOF 3
ENDMDL
MODEL 7
REMARK VINA RESULT:    -3.090      1.710      2.812
REMARK INTER + INTRA:          -3.767
REMARK INTER:                  -3.570
REMARK INTRA:                  -0.197
REMARK UNBOUND:                -0.135
REMARK  Name = C:\Users\Bellamkonda Sowmya\Downloads\flask-backend\results\792aa940-0d82-4d61-bb40-b4a5f47b73d7_ligand.pdb
REMARK  6 active torsions:
REMARK  status: ('A' for Active; 'I' for Inactive)
REMARK    1  A    between atoms: C1_1  and  C2_2
REMARK    2  A    between atoms: C2_2  and  N1_3
REMARK    3  A    between atoms: N1_3  and  C3_4
REMARK    4  A    between atoms: N1_3  and  C5_6
REMARK    5  A    between atoms: C3_4  and  C4_5
REMARK    6  A    between atoms: C5_6  and  C6_7
REMARK                            x       y       z     vdW  Elec       q    Type
REMARK                         _______ _______ _______ _____ _____    ______ ____
ROOT
ATOM      1  N1  UNL     1       6.877   2.476   4.685  0.00  0.00    +0.000 NA
ENDROOT
BRANCH   1   3
ATOM      2  C1  UNL     1       6.697   0.028   4.838  0.00  0.00    +0.000 C 
ATOM      3  C2  UNL     1       6.027   1.304   4.345  0.00  0.00    +0.000 C 
ENDBRANCH   1   3
BRANCH   1   4
ATOM      4  C3  UNL     1       7.327   2.437   6.096  0.00  0.00    +0.000 C 
ATOM      5  C4  UNL     1       6.305   3.103   7.017  0.00  0.00    +0.000 C 
ENDBRANCH   1   4
BRANCH   1   6
ATOM      6  C5  UNL     1       6.190   3.755   4.396  0.00  0.00    +0.000 C 
ATOM      7  C6  UNL     1       4.919   3.523   3.580  0.00  0.00    +0.000 C 
ENDBRANCH   1   6
TORSDOF 3
ENDMDL
MODEL 8
REMARK VINA RESULT:    -3.089      1.707      2.530
REMARK INTER + INTRA:          -3.765
REMARK INTER:                  -3.562
REMARK INTRA:                  -0.203
REMARK UNBOUND:                -0.135
REMARK  Name = C:\Users\Bellamkonda Sowmya\Downloads\flask-backend\results\792aa940-0d82-4d61-bb40-b4a5f47b73d7_ligand.pdb
REMARK  6 active torsions:
REMARK  status: ('A' for Active; 'I' for Inactive)
REMARK    1  A    between atoms: C1_1  and  C2_2
REMARK    2  A    between atoms: C2_2  and  N1_3
REMARK    3  A    between atoms: N1_3  and  C3_4
REMARK    4  A    between atoms: N1_3  and  C5_6
REMARK    5  A    between atoms: C3_4  and  C4_5
REMARK    6  A    between atoms: C5_6  and  C6_7
REMARK                            x       y       z     vdW  Elec       q    Type
REMARK                         _______ _______ _______ _____ _____    ______ ____
ROOT
ATOM      1  N1  UNL     1       6.852   2.540   4.760  0.00  0.00    +0.000 NA
ENDROOT
BRANCH   1   3
ATOM      2  C1  UNL     1       4.919   3.507   3.587  0.00  0.00    +0.000 C 
ATOM      3  C2  UNL     1       6.094   3.795   4.513  0.00  0.00    +0.000 C 
ENDBRANCH   1   3
BRANCH   1   4
ATOM      4  C3  UNL     1       6.072   1.342   4.373  0.00  0.00    +0.000 C 
ATOM      5  C4  UNL     1       6.809   0.059   4.760  0.00  0.00    +0.000 C 
ENDBRANCH   1   4
BRANCH   1   6
ATOM      6  C5  UNL     1       7.297   2.436   6.169  0.00  0.00    +0.000 C 
ATOM      7  C6  UNL     1       6.237   2.988   7.121  0.00  0.00    +0.000 C 
ENDBRANCH   1   6
TORSDOF 3
ENDMDL
MODEL 9
REMARK VINA RESULT:    -2.970      1.470      3.346
REMARK INTER + INTRA:          -3.626
REMARK INTER:                  -3.434
REMARK INTRA:                  -0.193
REMARK UNBOUND:                -0.135
REMARK  Name = C:\Users\Bellamkonda Sowmya\Downloads\flask-backend\results\792aa940-0d82-4d61-bb40-b4a5f47b73d7_ligand.pdb
REMARK  6 active torsions:
REMARK  status: ('A' for Active; 'I' for Inactive)
REMARK    1  A    between atoms: C1_1  and  C2_2
REMARK    2  A    between atoms: C2_2  and  N1_3
REMARK    3  A    between atoms: N1_3  and  C3_4
REMARK    4  A    between atoms: N1_3  and  C5_6
REMARK    5  A    between atoms: C3_4  and  C4_5
REMARK    6  A    between atoms: C5_6  and  C6_7
REMARK                            x       y       z     vdW  Elec       q    Type
REMARK                         _______ _______ _______ _____ _____    ______ ____
ROOT
ATOM      1  N1  UNL     1       5.618   1.868   5.272  0.00  0.00    +0.000 NA
ENDROOT
BRANCH   1   3
ATOM      2  C1  UNL     1       7.734   0.934   4.437  0.00  0.00    +0.000 C 
ATOM      3  C2  UNL     1       6.243   0.682   4.629  0.00  0.00    +0.000 C 
ENDBRANCH   1   3
BRANCH   1   4
ATOM      4  C3  UNL     1       5.008   2.777   4.274  0.00  0.00    +0.000 C 
ATOM      5  C4  UNL     1       5.372   4.233   4.564  0.00  0.00    +0.000 C 
ENDBRANCH   1   4
BRANCH   1   6
ATOM      6  C5  UNL     1       6.582   2.604   6.122  0.00  0.00    +0.000 C 
ATOM      7  C6  UNL     1       6.317   2.342   7.604  0.00  0.00    +0.000 C 
ENDBRANCH   1   6
TORSDOF 3
ENDMDL
