MODEL 1
REMARK VINA RESULT:    -5.291      0.000      0.000
REMARK INTER + INTRA:          -7.873
REMARK INTER:                  -7.147
REMARK INTRA:                  -0.725
REMARK UNBOUND:                -0.725
REMARK  Name = C:\Users\Bellamkonda Sowmya\OneDrive\Desktop\LIGBIND AI\authml\authml\backend\results\ligand_1766911764519.pdb
REMARK  7 active torsions:
REMARK  status: ('A' for Active; 'I' for Inactive)
REMARK    1  A    between atoms: C_2  and  C_4
REMARK    2  A    between atoms: C_11  and  C_12
REMARK    3  A    between atoms: C_15  and  O_16
REMARK    4  A    between atoms: N_19  and  C_20
REMARK    5  A    between atoms: C_20  and  C_21
REMARK    6  A    between atoms: C_21  and  C_22
REMARK    7  A    between atoms: C_22  and  O_23
REMARK                            x       y       z     vdW  Elec       q    Type
REMARK                         _______ _______ _______ _____ _____    ______ ____
ROOT
ATOM      1  C   UNL     1      -5.404   2.275  -1.761  0.00  0.00    +0.000 A 
ATOM      2  C   UNL     1      -6.472   2.577  -0.912  0.00  0.00    +0.000 A 
ATOM      3  C   UNL     1      -7.008   1.615  -0.050  0.00  0.00    +0.000 A 
ATOM      4  C   UNL     1      -6.455   0.324  -0.083  0.00  0.00    +0.000 A 
ATOM      5  C   UNL     1      -5.414   0.000  -0.935  0.00  0.00    +0.000 A 
ATOM      6  C   UNL     1      -4.855   0.981  -1.775  0.00  0.00    +0.000 A 
ATOM      7  N   UNL     1      -5.054  -1.309  -0.768  0.00  0.00    +0.000 NA
ATOM      8  C   UNL     1      -5.780  -1.798   0.230  0.00  0.00    +0.000 A 
ATOM      9  N   UNL     1      -6.704  -0.839   0.638  0.00  0.00    +0.000 N 
ENDROOT
BRANCH   8  10
ATOM     10  C   UNL     1      -5.341  -3.103   0.898  0.00  0.00    +0.000 C 
ATOM     11  C   UNL     1      -4.136  -3.112   1.855  0.00  0.00    +0.000 C 
ATOM     12  C   UNL     1      -3.560  -4.518   2.162  0.00  0.00    +0.000 C 
ATOM     13  C   UNL     1      -3.575  -5.510   0.987  0.00  0.00    +0.000 C 
ATOM     14  C   UNL     1      -3.933  -4.823  -0.320  0.00  0.00    +0.000 C 
ATOM     15  C   UNL     1      -5.315  -4.217  -0.166  0.00  0.00    +0.000 C 
BRANCH  13  16
ATOM     16  O   UNL     1      -2.320  -6.152   0.844  0.00  0.00    +0.000 OA
ATOM     17  H   UNL     1      -2.454  -7.102   1.022  0.00  0.00    +0.000 HD
ENDBRANCH  13  16
ENDBRANCH   8  10
BRANCH   1  19
ATOM     18  N   UNL     1      -4.576   3.106  -3.902  0.00  0.00    +0.000 N 
ATOM     19  C   UNL     1      -4.863   3.381  -2.597  0.00  0.00    +0.000 C 
ATOM     20  O   UNL     1      -4.708   4.512  -2.147  0.00  0.00    +0.000 OA
ATOM     21  H   UNL     1      -4.321   3.898  -4.478  0.00  0.00    +0.000 HD
ATOM     22  H   UNL     1      -4.902   2.270  -4.366  0.00  0.00    +0.000 HD
ENDBRANCH   1  19
BRANCH   9  23
ATOM     23  C   UNL     1      -7.673  -0.880   1.717  0.00  0.00    +0.000 C 
BRANCH  23  24
ATOM     24  C   UNL     1      -7.153  -0.452   3.097  0.00  0.00    +0.000 C 
BRANCH  24  25
ATOM     25  C   UNL     1      -8.007   0.593   3.800  0.00  0.00    +0.000 C 
BRANCH  25  26
ATOM     26  O   UNL     1      -7.903   0.416   5.208  0.00  0.00    +0.000 OA
ATOM     27  H   UNL     1      -8.402   1.126   5.646  0.00  0.00    +0.000 HD
ENDBRANCH  25  26
ENDBRANCH  24  25
ENDBRANCH  23  24
ENDBRANCH   9  23
TORSDOF 7
ENDMDL
