MODEL 1
REMARK VINA RESULT:    -2.927      0.000      0.000
REMARK INTER + INTRA:          -3.601
REMARK INTER:                  -3.440
REMARK INTRA:                  -0.161
REMARK UNBOUND:                -0.161
REMARK  Name = results/1f571217-9c68-469a-9925-e3c14d411938_ligand.pdb
REMARK  6 active torsions:
REMARK  status: ('A' for Active; 'I' for Inactive)
REMARK    1  A    between atoms: C1_1  and  C2_2
REMARK    2  A    between atoms: C2_2  and  N1_3
REMARK    3  A    between atoms: N1_3  and  C3_4
REMARK    4  A    between atoms: N1_3  and  C5_6
REMARK    5  A    between atoms: C3_4  and  C4_5
REMARK    6  A    between atoms: C5_6  and  C6_7
REMARK                            x       y       z     vdW  Elec       q    Type
REMARK                         _______ _______ _______ _____ _____    ______ ____
ROOT
ATOM      1  N1  UNL     1      -4.548  -3.262   2.148  0.00  0.00    +0.000 NA
ENDROOT
BRANCH   1   3
ATOM      2  C1  UNL     1      -3.614  -4.896   0.567  0.00  0.00    +0.000 C 
ATOM      3  C2  UNL     1      -4.300  -3.543   0.710  0.00  0.00    +0.000 C 
ENDBRANCH   1   3
BRANCH   1   4
ATOM      4  C3  UNL     1      -4.566  -1.808   2.429  0.00  0.00    +0.000 C 
ATOM      5  C4  UNL     1      -5.969  -1.340   2.817  0.00  0.00    +0.000 C 
ENDBRANCH   1   4
BRANCH   1   6
ATOM      6  C5  UNL     1      -3.564  -3.945   3.020  0.00  0.00    +0.000 C 
ATOM      7  C6  UNL     1      -2.661  -2.934   3.724  0.00  0.00    +0.000 C 
ENDBRANCH   1   6
TORSDOF 3
ENDMDL
MODEL 2
REMARK VINA RESULT:    -2.898      0.582      2.401
REMARK INTER + INTRA:          -3.567
REMARK INTER:                  -3.406
REMARK INTRA:                  -0.161
REMARK UNBOUND:                -0.161
REMARK  Name = results/1f571217-9c68-469a-9925-e3c14d411938_ligand.pdb
REMARK  6 active torsions:
REMARK  status: ('A' for Active; 'I' for Inactive)
REMARK    1  A    between atoms: C1_1  and  C2_2
REMARK    2  A    between atoms: C2_2  and  N1_3
REMARK    3  A    between atoms: N1_3  and  C3_4
REMARK    4  A    between atoms: N1_3  and  C5_6
REMARK    5  A    between atoms: C3_4  and  C4_5
REMARK    6  A    between atoms: C5_6  and  C6_7
REMARK                            x       y       z     vdW  Elec       q    Type
REMARK                         _______ _______ _______ _____ _____    ______ ____
ROOT
ATOM      1  N1  UNL     1      -4.286  -2.998   2.022  0.00  0.00    +0.000 NA
ENDROOT
BRANCH   1   3
ATOM      2  C1  UNL     1      -3.562  -4.915   0.663  0.00  0.00    +0.000 C 
ATOM      3  C2  UNL     1      -4.351  -3.611   0.669  0.00  0.00    +0.000 C 
ENDBRANCH   1   3
BRANCH   1   4
ATOM      4  C3  UNL     1      -3.450  -3.796   2.948  0.00  0.00    +0.000 C 
ATOM      5  C4  UNL     1      -2.580  -2.891   3.821  0.00  0.00    +0.000 C 
ENDBRANCH   1   4
BRANCH   1   6
ATOM      6  C5  UNL     1      -5.636  -2.787   2.594  0.00  0.00    +0.000 C 
ATOM      7  C6  UNL     1      -5.906  -1.301   2.827  0.00  0.00    +0.000 C 
ENDBRANCH   1   6
TORSDOF 3
ENDMDL
MODEL 3
REMARK VINA RESULT:    -2.887      0.191      3.146
REMARK INTER + INTRA:          -3.555
REMARK INTER:                  -3.394
REMARK INTRA:                  -0.161
REMARK UNBOUND:                -0.161
REMARK  Name = results/1f571217-9c68-469a-9925-e3c14d411938_ligand.pdb
REMARK  6 active torsions:
REMARK  status: ('A' for Active; 'I' for Inactive)
REMARK    1  A    between atoms: C1_1  and  C2_2
REMARK    2  A    between atoms: C2_2  and  N1_3
REMARK    3  A    between atoms: N1_3  and  C3_4
REMARK    4  A    between atoms: N1_3  and  C5_6
REMARK    5  A    between atoms: C3_4  and  C4_5
REMARK    6  A    between atoms: C5_6  and  C6_7
REMARK                            x       y       z     vdW  Elec       q    Type
REMARK                         _______ _______ _______ _____ _____    ______ ____
ROOT
ATOM      1  N1  UNL     1      -4.612  -3.173   2.226  0.00  0.00    +0.000 NA
ENDROOT
BRANCH   1   3
ATOM      2  C1  UNL     1      -2.690  -2.950   3.743  0.00  0.00    +0.000 C 
ATOM      3  C2  UNL     1      -3.636  -3.927   3.055  0.00  0.00    +0.000 C 
ENDBRANCH   1   3
BRANCH   1   4
ATOM      4  C3  UNL     1      -4.320  -3.299   0.780  0.00  0.00    +0.000 C 
ATOM      5  C4  UNL     1      -3.780  -4.690   0.448  0.00  0.00    +0.000 C 
ENDBRANCH   1   4
BRANCH   1   6
ATOM      6  C5  UNL     1      -4.679  -1.746   2.618  0.00  0.00    +0.000 C 
ATOM      7  C6  UNL     1      -6.128  -1.294   2.798  0.00  0.00    +0.000 C 
ENDBRANCH   1   6
TORSDOF 3
ENDMDL
MODEL 4
REMARK VINA RESULT:    -2.880      0.117      3.156
REMARK INTER + INTRA:          -3.546
REMARK INTER:                  -3.384
REMARK INTRA:                  -0.162
REMARK UNBOUND:                -0.161
REMARK  Name = results/1f571217-9c68-469a-9925-e3c14d411938_ligand.pdb
REMARK  6 active torsions:
REMARK  status: ('A' for Active; 'I' for Inactive)
REMARK    1  A    between atoms: C1_1  and  C2_2
REMARK    2  A    between atoms: C2_2  and  N1_3
REMARK    3  A    between atoms: N1_3  and  C3_4
REMARK    4  A    between atoms: N1_3  and  C5_6
REMARK    5  A    between atoms: C3_4  and  C4_5
REMARK    6  A    between atoms: C5_6  and  C6_7
REMARK                            x       y       z     vdW  Elec       q    Type
REMARK                         _______ _______ _______ _____ _____    ______ ____
ROOT
ATOM      1  N1  UNL     1      -4.575  -3.255   2.227  0.00  0.00    +0.000 NA
ENDROOT
BRANCH   1   3
ATOM      2  C1  UNL     1      -6.064  -1.333   2.594  0.00  0.00    +0.000 C 
ATOM      3  C2  UNL     1      -4.615  -1.789   2.469  0.00  0.00    +0.000 C 
ENDBRANCH   1   3
BRANCH   1   4
ATOM      4  C3  UNL     1      -3.528  -3.918   3.036  0.00  0.00    +0.000 C 
ATOM      5  C4  UNL     1      -2.629  -2.888   3.722  0.00  0.00    +0.000 C 
ENDBRANCH   1   4
BRANCH   1   6
ATOM      6  C5  UNL     1      -4.395  -3.569   0.790  0.00  0.00    +0.000 C 
ATOM      7  C6  UNL     1      -3.657  -4.895   0.608  0.00  0.00    +0.000 C 
ENDBRANCH   1   6
TORSDOF 3
ENDMDL
MODEL 5
REMARK VINA RESULT:    -2.772      1.593      2.187
REMARK INTER + INTRA:          -3.419
REMARK INTER:                  -3.287
REMARK INTRA:                  -0.131
REMARK UNBOUND:                -0.161
REMARK  Name = results/1f571217-9c68-469a-9925-e3c14d411938_ligand.pdb
REMARK  6 active torsions:
REMARK  status: ('A' for Active; 'I' for Inactive)
REMARK    1  A    between atoms: C1_1  and  C2_2
REMARK    2  A    between atoms: C2_2  and  N1_3
REMARK    3  A    between atoms: N1_3  and  C3_4
REMARK    4  A    between atoms: N1_3  and  C5_6
REMARK    5  A    between atoms: C3_4  and  C4_5
REMARK    6  A    between atoms: C5_6  and  C6_7
REMARK                            x       y       z     vdW  Elec       q    Type
REMARK                         _______ _______ _______ _____ _____    ______ ____
ROOT
ATOM      1  N1  UNL     1      -3.770  -4.803   2.147  0.00  0.00    +0.000 NA
ENDROOT
BRANCH   1   3
ATOM      2  C1  UNL     1      -2.855  -6.190   0.335  0.00  0.00    +0.000 C 
ATOM      3  C2  UNL     1      -3.496  -4.853   0.687  0.00  0.00    +0.000 C 
ENDBRANCH   1   3
BRANCH   1   4
ATOM      4  C3  UNL     1      -4.990  -5.564   2.505  0.00  0.00    +0.000 C 
ATOM      5  C4  UNL     1      -6.064  -4.641   3.079  0.00  0.00    +0.000 C 
ENDBRANCH   1   4
BRANCH   1   6
ATOM      6  C5  UNL     1      -3.867  -3.410   2.640  0.00  0.00    +0.000 C 
ATOM      7  C6  UNL     1      -2.733  -3.094   3.615  0.00  0.00    +0.000 C 
ENDBRANCH   1   6
TORSDOF 3
ENDMDL
MODEL 6
REMARK VINA RESULT:    -2.759      1.274      2.921
REMARK INTER + INTRA:          -3.404
REMARK INTER:                  -3.253
REMARK INTRA:                  -0.151
REMARK UNBOUND:                -0.161
REMARK  Name = results/1f571217-9c68-469a-9925-e3c14d411938_ligand.pdb
REMARK  6 active torsions:
REMARK  status: ('A' for Active; 'I' for Inactive)
REMARK    1  A    between atoms: C1_1  and  C2_2
REMARK    2  A    between atoms: C2_2  and  N1_3
REMARK    3  A    between atoms: N1_3  and  C3_4
REMARK    4  A    between atoms: N1_3  and  C5_6
REMARK    5  A    between atoms: C3_4  and  C4_5
REMARK    6  A    between atoms: C5_6  and  C6_7
REMARK                            x       y       z     vdW  Elec       q    Type
REMARK                         _______ _______ _______ _____ _____    ______ ____
ROOT
ATOM      1  N1  UNL     1      -3.755  -3.627   1.594  0.00  0.00    +0.000 NA
ENDROOT
BRANCH   1   3
ATOM      2  C1  UNL     1      -4.891  -1.653   0.668  0.00  0.00    +0.000 C 
ATOM      3  C2  UNL     1      -4.789  -3.173   0.628  0.00  0.00    +0.000 C 
ENDBRANCH   1   3
BRANCH   1   4
ATOM      4  C3  UNL     1      -3.663  -5.104   1.648  0.00  0.00    +0.000 C 
ATOM      5  C4  UNL     1      -3.159  -5.672   0.321  0.00  0.00    +0.000 C 
ENDBRANCH   1   4
BRANCH   1   6
ATOM      6  C5  UNL     1      -3.987  -3.073   2.948  0.00  0.00    +0.000 C 
ATOM      7  C6  UNL     1      -2.684  -3.008   3.745  0.00  0.00    +0.000 C 
ENDBRANCH   1   6
TORSDOF 3
ENDMDL
MODEL 7
REMARK VINA RESULT:    -2.714      1.441      2.743
REMARK INTER + INTRA:          -3.351
REMARK INTER:                  -3.191
REMARK INTRA:                  -0.160
REMARK UNBOUND:                -0.161
REMARK  Name = results/1f571217-9c68-469a-9925-e3c14d411938_ligand.pdb
REMARK  6 active torsions:
REMARK  status: ('A' for Active; 'I' for Inactive)
REMARK    1  A    between atoms: C1_1  and  C2_2
REMARK    2  A    between atoms: C2_2  and  N1_3
REMARK    3  A    between atoms: N1_3  and  C3_4
REMARK    4  A    between atoms: N1_3  and  C5_6
REMARK    5  A    between atoms: C3_4  and  C4_5
REMARK    6  A    between atoms: C5_6  and  C6_7
REMARK                            x       y       z     vdW  Elec       q    Type
REMARK                         _______ _______ _______ _____ _____    ______ ____
ROOT
ATOM      1  N1  UNL     1      -3.914  -4.359   2.351  0.00  0.00    +0.000 NA
ENDROOT
BRANCH   1   3
ATOM      2  C1  UNL     1      -5.136  -6.469   2.036  0.00  0.00    +0.000 C 
ATOM      3  C2  UNL     1      -5.101  -5.142   2.785  0.00  0.00    +0.000 C 
ENDBRANCH   1   3
BRANCH   1   4
ATOM      4  C3  UNL     1      -3.861  -3.032   3.007  0.00  0.00    +0.000 C 
ATOM      5  C4  UNL     1      -2.569  -2.866   3.807  0.00  0.00    +0.000 C 
ENDBRANCH   1   4
BRANCH   1   6
ATOM      6  C5  UNL     1      -3.862  -4.210   0.878  0.00  0.00    +0.000 C 
ATOM      7  C6  UNL     1      -4.604  -2.952   0.427  0.00  0.00    +0.000 C 
ENDBRANCH   1   6
TORSDOF 3
ENDMDL
MODEL 8
REMARK VINA RESULT:    -2.684      1.112      2.717
REMARK INTER + INTRA:          -3.316
REMARK INTER:                  -3.155
REMARK INTRA:                  -0.160
REMARK UNBOUND:                -0.161
REMARK  Name = results/1f571217-9c68-469a-9925-e3c14d411938_ligand.pdb
REMARK  6 active torsions:
REMARK  status: ('A' for Active; 'I' for Inactive)
REMARK    1  A    between atoms: C1_1  and  C2_2
REMARK    2  A    between atoms: C2_2  and  N1_3
REMARK    3  A    between atoms: N1_3  and  C3_4
REMARK    4  A    between atoms: N1_3  and  C5_6
REMARK    5  A    between atoms: C3_4  and  C4_5
REMARK    6  A    between atoms: C5_6  and  C6_7
REMARK                            x       y       z     vdW  Elec       q    Type
REMARK                         _______ _______ _______ _____ _____    ______ ____
ROOT
ATOM      1  N1  UNL     1      -3.934  -3.500   1.424  0.00  0.00    +0.000 NA
ENDROOT
BRANCH   1   3
ATOM      2  C1  UNL     1      -2.737  -3.055   3.525  0.00  0.00    +0.000 C 
ATOM      3  C2  UNL     1      -3.607  -4.049   2.765  0.00  0.00    +0.000 C 
ENDBRANCH   1   3
BRANCH   1   4
ATOM      4  C3  UNL     1      -5.110  -2.600   1.469  0.00  0.00    +0.000 C 
ATOM      5  C4  UNL     1      -4.863  -1.332   0.651  0.00  0.00    +0.000 C 
ENDBRANCH   1   4
BRANCH   1   6
ATOM      6  C5  UNL     1      -4.143  -4.574   0.426  0.00  0.00    +0.000 C 
ATOM      7  C6  UNL     1      -3.076  -5.660   0.558  0.00  0.00    +0.000 C 
ENDBRANCH   1   6
TORSDOF 3
ENDMDL
MODEL 9
REMARK VINA RESULT:    -2.586     13.751     14.806
REMARK INTER + INTRA:          -3.201
REMARK INTER:                  -3.052
REMARK INTRA:                  -0.149
REMARK UNBOUND:                -0.161
REMARK  Name = results/1f571217-9c68-469a-9925-e3c14d411938_ligand.pdb
REMARK  6 active torsions:
REMARK  status: ('A' for Active; 'I' for Inactive)
REMARK    1  A    between atoms: C1_1  and  C2_2
REMARK    2  A    between atoms: C2_2  and  N1_3
REMARK    3  A    between atoms: N1_3  and  C3_4
REMARK    4  A    between atoms: N1_3  and  C5_6
REMARK    5  A    between atoms: C3_4  and  C4_5
REMARK    6  A    between atoms: C5_6  and  C6_7
REMARK                            x       y       z     vdW  Elec       q    Type
REMARK                         _______ _______ _______ _____ _____    ______ ____
ROOT
ATOM      1  N1  UNL     1       9.350  -4.967  -2.642  0.00  0.00    +0.000 NA
ENDROOT
BRANCH   1   3
ATOM      2  C1  UNL     1      10.794  -3.087  -3.295  0.00  0.00    +0.000 C 
ATOM      3  C2  UNL     1      10.700  -4.600  -3.145  0.00  0.00    +0.000 C 
ENDBRANCH   1   3
BRANCH   1   4
ATOM      4  C3  UNL     1       9.197  -4.658  -1.202  0.00  0.00    +0.000 C 
ATOM      5  C4  UNL     1       8.408  -5.754  -0.486  0.00  0.00    +0.000 C 
ENDBRANCH   1   4
BRANCH   1   6
ATOM      6  C5  UNL     1       9.036  -6.391  -2.902  0.00  0.00    +0.000 C 
ATOM      7  C6  UNL     1       8.452  -6.577  -4.302  0.00  0.00    +0.000 C 
ENDBRANCH   1   6
TORSDOF 3
ENDMDL
