MODEL 1
REMARK VINA RESULT:    -3.982      0.000      0.000
REMARK INTER + INTRA:          -4.712
REMARK INTER:                  -4.331
REMARK INTRA:                  -0.381
REMARK UNBOUND:                -0.381
REMARK  Name = C:\DDRIVE\PROJECT\RMPRF\authml\backend\results\ligand_1764579771935.pdb
REMARK  3 active torsions:
REMARK  status: ('A' for Active; 'I' for Inactive)
REMARK    1  A    between atoms: C_1  and  N_2
REMARK    2  A    between atoms: C_4  and  C_5
REMARK    3  A    between atoms: C_5  and  O_7
REMARK                            x       y       z     vdW  Elec       q    Type
REMARK                         _______ _______ _______ _____ _____    ______ ____
ROOT
ATOM      1  C   UNL     1      -3.368  -3.725   2.778  0.00  0.00    +0.000 C 
ATOM      2  N   UNL     1      -3.368  -3.725   2.778  0.00  0.00    +0.000 N 
ATOM      3  C   UNL     1      -2.900  -3.191   3.482  0.00  0.00    +0.000 C 
ATOM      4  C   UNL     1      -4.304  -2.320   2.334  0.00  0.00    +0.000 C 
ATOM      5  C   UNL     1      -3.368  -3.725   2.778  0.00  0.00    +0.000 C 
ATOM      6  C   UNL     1      -4.152  -2.679   2.631  0.00  0.00    +0.000 C 
ATOM      7  O   UNL     1      -4.447  -4.131   3.759  0.00  0.00    +0.000 OA
ENDROOT
BRANCH   4   8
ATOM      8  C   UNL     1      -5.735  -2.079   2.783  0.00  0.00    +0.000 C 
ATOM      9  O   UNL     1      -6.053  -0.956   3.288  0.00  0.00    +0.000 OA
BRANCH   8  10
ATOM     10  O   UNL     1      -6.717  -3.094   2.638  0.00  0.00    +0.000 OA
ATOM     11  H   UNL     1      -7.431  -3.202   3.330  0.00  0.00    +0.000 HD
ENDBRANCH   8  10
ENDBRANCH   4   8
TORSDOF 2
ENDMDL
