MODEL 1
REMARK VINA RESULT:    -2.940      0.000      0.000
REMARK INTER + INTRA:          -3.611
REMARK INTER:                  -3.456
REMARK INTRA:                  -0.155
REMARK UNBOUND:                -0.155
REMARK  Name = C:\DDRIVE\PROJECT\authml\backend\results\ligand_1764476311421.pdb
REMARK  6 active torsions:
REMARK  status: ('A' for Active; 'I' for Inactive)
REMARK    1  A    between atoms: C_1  and  C_2
REMARK    2  A    between atoms: C_2  and  N_3
REMARK    3  A    between atoms: N_3  and  C_4
REMARK    4  A    between atoms: N_3  and  C_6
REMARK    5  A    between atoms: C_4  and  C_5
REMARK    6  A    between atoms: C_6  and  C_7
REMARK                            x       y       z     vdW  Elec       q    Type
REMARK                         _______ _______ _______ _____ _____    ______ ____
ROOT
ATOM      1  N   UNL     1      -4.547  -3.196   2.227  0.00  0.00    +0.000 NA
ENDROOT
BRANCH   1   3
ATOM      2  C   UNL     1      -6.056  -1.287   2.801  0.00  0.00    +0.000 C 
ATOM      3  C   UNL     1      -4.646  -1.744   2.429  0.00  0.00    +0.000 C 
ENDBRANCH   1   3
BRANCH   1   4
ATOM      4  C   UNL     1      -4.227  -3.591   0.844  0.00  0.00    +0.000 C 
ATOM      5  C   UNL     1      -3.577  -4.961   0.658  0.00  0.00    +0.000 C 
ENDBRANCH   1   4
BRANCH   1   6
ATOM      6  C   UNL     1      -3.649  -3.844   3.196  0.00  0.00    +0.000 C 
ATOM      7  C   UNL     1      -2.615  -2.889   3.786  0.00  0.00    +0.000 C 
ENDBRANCH   1   6
TORSDOF 3
ENDMDL
MODEL 2
REMARK VINA RESULT:    -2.940      0.221      3.268
REMARK INTER + INTRA:          -3.611
REMARK INTER:                  -3.454
REMARK INTRA:                  -0.157
REMARK UNBOUND:                -0.155
REMARK  Name = C:\DDRIVE\PROJECT\authml\backend\results\ligand_1764476311421.pdb
REMARK  6 active torsions:
REMARK  status: ('A' for Active; 'I' for Inactive)
REMARK    1  A    between atoms: C_1  and  C_2
REMARK    2  A    between atoms: C_2  and  N_3
REMARK    3  A    between atoms: N_3  and  C_4
REMARK    4  A    between atoms: N_3  and  C_6
REMARK    5  A    between atoms: C_4  and  C_5
REMARK    6  A    between atoms: C_6  and  C_7
REMARK                            x       y       z     vdW  Elec       q    Type
REMARK                         _______ _______ _______ _____ _____    ______ ____
ROOT
ATOM      1  N   UNL     1      -4.471  -3.278   2.190  0.00  0.00    +0.000 NA
ENDROOT
BRANCH   1   3
ATOM      2  C   UNL     1      -3.466  -5.198   0.944  0.00  0.00    +0.000 C 
ATOM      3  C   UNL     1      -4.026  -3.778   0.882  0.00  0.00    +0.000 C 
ENDBRANCH   1   3
BRANCH   1   4
ATOM      4  C   UNL     1      -3.667  -3.763   3.325  0.00  0.00    +0.000 C 
ATOM      5  C   UNL     1      -2.557  -2.838   3.822  0.00  0.00    +0.000 C 
ENDBRANCH   1   4
BRANCH   1   6
ATOM      6  C   UNL     1      -4.618  -1.813   2.219  0.00  0.00    +0.000 C 
ATOM      7  C   UNL     1      -5.940  -1.357   2.829  0.00  0.00    +0.000 C 
ENDBRANCH   1   6
TORSDOF 3
ENDMDL
MODEL 3
REMARK VINA RESULT:    -2.902      0.186      3.239
REMARK INTER + INTRA:          -3.566
REMARK INTER:                  -3.418
REMARK INTRA:                  -0.148
REMARK UNBOUND:                -0.155
REMARK  Name = C:\DDRIVE\PROJECT\authml\backend\results\ligand_1764476311421.pdb
REMARK  6 active torsions:
REMARK  status: ('A' for Active; 'I' for Inactive)
REMARK    1  A    between atoms: C_1  and  C_2
REMARK    2  A    between atoms: C_2  and  N_3
REMARK    3  A    between atoms: N_3  and  C_4
REMARK    4  A    between atoms: N_3  and  C_6
REMARK    5  A    between atoms: C_4  and  C_5
REMARK    6  A    between atoms: C_6  and  C_7
REMARK                            x       y       z     vdW  Elec       q    Type
REMARK                         _______ _______ _______ _____ _____    ______ ____
ROOT
ATOM      1  N   UNL     1      -4.510  -3.281   2.069  0.00  0.00    +0.000 NA
ENDROOT
BRANCH   1   3
ATOM      2  C   UNL     1      -2.676  -2.958   3.737  0.00  0.00    +0.000 C 
ATOM      3  C   UNL     1      -3.574  -3.942   2.988  0.00  0.00    +0.000 C 
ENDBRANCH   1   3
BRANCH   1   4
ATOM      4  C   UNL     1      -4.598  -1.822   2.247  0.00  0.00    +0.000 C 
ATOM      5  C   UNL     1      -5.887  -1.284   2.867  0.00  0.00    +0.000 C 
ENDBRANCH   1   4
BRANCH   1   6
ATOM      6  C   UNL     1      -4.276  -3.642   0.661  0.00  0.00    +0.000 C 
ATOM      7  C   UNL     1      -3.588  -4.994   0.497  0.00  0.00    +0.000 C 
ENDBRANCH   1   6
TORSDOF 3
ENDMDL
MODEL 4
REMARK VINA RESULT:    -2.823      0.705      2.959
REMARK INTER + INTRA:          -3.473
REMARK INTER:                  -3.348
REMARK INTRA:                  -0.125
REMARK UNBOUND:                -0.155
REMARK  Name = C:\DDRIVE\PROJECT\authml\backend\results\ligand_1764476311421.pdb
REMARK  6 active torsions:
REMARK  status: ('A' for Active; 'I' for Inactive)
REMARK    1  A    between atoms: C_1  and  C_2
REMARK    2  A    between atoms: C_2  and  N_3
REMARK    3  A    between atoms: N_3  and  C_4
REMARK    4  A    between atoms: N_3  and  C_6
REMARK    5  A    between atoms: C_4  and  C_5
REMARK    6  A    between atoms: C_6  and  C_7
REMARK                            x       y       z     vdW  Elec       q    Type
REMARK                         _______ _______ _______ _____ _____    ______ ____
ROOT
ATOM      1  N   UNL     1      -4.104  -3.179   1.879  0.00  0.00    +0.000 NA
ENDROOT
BRANCH   1   3
ATOM      2  C   UNL     1      -3.583  -5.563   1.337  0.00  0.00    +0.000 C 
ATOM      3  C   UNL     1      -3.878  -4.160   0.809  0.00  0.00    +0.000 C 
ENDBRANCH   1   3
BRANCH   1   4
ATOM      4  C   UNL     1      -5.466  -2.618   1.904  0.00  0.00    +0.000 C 
ATOM      5  C   UNL     1      -5.696  -1.423   2.828  0.00  0.00    +0.000 C 
ENDBRANCH   1   4
BRANCH   1   6
ATOM      6  C   UNL     1      -3.700  -3.679   3.203  0.00  0.00    +0.000 C 
ATOM      7  C   UNL     1      -2.544  -2.891   3.813  0.00  0.00    +0.000 C 
ENDBRANCH   1   6
TORSDOF 3
ENDMDL
MODEL 5
REMARK VINA RESULT:    -2.758      1.421      2.679
REMARK INTER + INTRA:          -3.396
REMARK INTER:                  -3.191
REMARK INTRA:                  -0.205
REMARK UNBOUND:                -0.155
REMARK  Name = C:\DDRIVE\PROJECT\authml\backend\results\ligand_1764476311421.pdb
REMARK  6 active torsions:
REMARK  status: ('A' for Active; 'I' for Inactive)
REMARK    1  A    between atoms: C_1  and  C_2
REMARK    2  A    between atoms: C_2  and  N_3
REMARK    3  A    between atoms: N_3  and  C_4
REMARK    4  A    between atoms: N_3  and  C_6
REMARK    5  A    between atoms: C_4  and  C_5
REMARK    6  A    between atoms: C_6  and  C_7
REMARK                            x       y       z     vdW  Elec       q    Type
REMARK                         _______ _______ _______ _____ _____    ______ ____
ROOT
ATOM      1  N   UNL     1      -3.908  -3.832   1.821  0.00  0.00    +0.000 NA
ENDROOT
BRANCH   1   3
ATOM      2  C   UNL     1      -4.933  -1.836   0.718  0.00  0.00    +0.000 C 
ATOM      3  C   UNL     1      -4.388  -3.255   0.558  0.00  0.00    +0.000 C 
ENDBRANCH   1   3
BRANCH   1   4
ATOM      4  C   UNL     1      -3.837  -2.870   2.934  0.00  0.00    +0.000 C 
ATOM      5  C   UNL     1      -2.563  -2.892   3.778  0.00  0.00    +0.000 C 
ENDBRANCH   1   4
BRANCH   1   6
ATOM      6  C   UNL     1      -4.640  -5.050   2.205  0.00  0.00    +0.000 C 
ATOM      7  C   UNL     1      -5.788  -4.778   3.172  0.00  0.00    +0.000 C 
ENDBRANCH   1   6
TORSDOF 3
ENDMDL
MODEL 6
REMARK VINA RESULT:    -2.710      1.253      2.765
REMARK INTER + INTRA:          -3.340
REMARK INTER:                  -3.188
REMARK INTRA:                  -0.152
REMARK UNBOUND:                -0.155
REMARK  Name = C:\DDRIVE\PROJECT\authml\backend\results\ligand_1764476311421.pdb
REMARK  6 active torsions:
REMARK  status: ('A' for Active; 'I' for Inactive)
REMARK    1  A    between atoms: C_1  and  C_2
REMARK    2  A    between atoms: C_2  and  N_3
REMARK    3  A    between atoms: N_3  and  C_4
REMARK    4  A    between atoms: N_3  and  C_6
REMARK    5  A    between atoms: C_4  and  C_5
REMARK    6  A    between atoms: C_6  and  C_7
REMARK                            x       y       z     vdW  Elec       q    Type
REMARK                         _______ _______ _______ _____ _____    ______ ____
ROOT
ATOM      1  N   UNL     1      -3.958  -3.556   1.317  0.00  0.00    +0.000 NA
ENDROOT
BRANCH   1   3
ATOM      2  C   UNL     1      -4.955  -1.342   0.721  0.00  0.00    +0.000 C 
ATOM      3  C   UNL     1      -5.163  -2.716   1.357  0.00  0.00    +0.000 C 
ENDBRANCH   1   3
BRANCH   1   4
ATOM      4  C   UNL     1      -3.558  -4.097   2.627  0.00  0.00    +0.000 C 
ATOM      5  C   UNL     1      -2.824  -3.141   3.567  0.00  0.00    +0.000 C 
ENDBRANCH   1   4
BRANCH   1   6
ATOM      6  C   UNL     1      -4.037  -4.613   0.296  0.00  0.00    +0.000 C 
ATOM      7  C   UNL     1      -3.090  -5.779   0.567  0.00  0.00    +0.000 C 
ENDBRANCH   1   6
TORSDOF 3
ENDMDL
MODEL 7
REMARK VINA RESULT:    -2.647      1.357      2.953
REMARK INTER + INTRA:          -3.266
REMARK INTER:                  -3.071
REMARK INTRA:                  -0.195
REMARK UNBOUND:                -0.155
REMARK  Name = C:\DDRIVE\PROJECT\authml\backend\results\ligand_1764476311421.pdb
REMARK  6 active torsions:
REMARK  status: ('A' for Active; 'I' for Inactive)
REMARK    1  A    between atoms: C_1  and  C_2
REMARK    2  A    between atoms: C_2  and  N_3
REMARK    3  A    between atoms: N_3  and  C_4
REMARK    4  A    between atoms: N_3  and  C_6
REMARK    5  A    between atoms: C_4  and  C_5
REMARK    6  A    between atoms: C_6  and  C_7
REMARK                            x       y       z     vdW  Elec       q    Type
REMARK                         _______ _______ _______ _____ _____    ______ ____
ROOT
ATOM      1  N   UNL     1      -4.767  -2.964   2.017  0.00  0.00    +0.000 NA
ENDROOT
BRANCH   1   3
ATOM      2  C   UNL     1      -2.843  -3.069   3.609  0.00  0.00    +0.000 C 
ATOM      3  C   UNL     1      -3.548  -3.687   2.403  0.00  0.00    +0.000 C 
ENDBRANCH   1   3
BRANCH   1   4
ATOM      4  C   UNL     1      -5.978  -3.802   1.979  0.00  0.00    +0.000 C 
ATOM      5  C   UNL     1      -6.134  -4.830   3.099  0.00  0.00    +0.000 C 
ENDBRANCH   1   4
BRANCH   1   6
ATOM      6  C   UNL     1      -4.979  -1.743   2.811  0.00  0.00    +0.000 C 
ATOM      7  C   UNL     1      -6.368  -1.140   2.623  0.00  0.00    +0.000 C 
ENDBRANCH   1   6
TORSDOF 3
ENDMDL
MODEL 8
REMARK VINA RESULT:    -2.607      1.485      2.103
REMARK INTER + INTRA:          -3.219
REMARK INTER:                  -3.080
REMARK INTRA:                  -0.139
REMARK UNBOUND:                -0.155
REMARK  Name = C:\DDRIVE\PROJECT\authml\backend\results\ligand_1764476311421.pdb
REMARK  6 active torsions:
REMARK  status: ('A' for Active; 'I' for Inactive)
REMARK    1  A    between atoms: C_1  and  C_2
REMARK    2  A    between atoms: C_2  and  N_3
REMARK    3  A    between atoms: N_3  and  C_4
REMARK    4  A    between atoms: N_3  and  C_6
REMARK    5  A    between atoms: C_4  and  C_5
REMARK    6  A    between atoms: C_6  and  C_7
REMARK                            x       y       z     vdW  Elec       q    Type
REMARK                         _______ _______ _______ _____ _____    ______ ____
ROOT
ATOM      1  N   UNL     1      -3.844  -4.456   2.098  0.00  0.00    +0.000 NA
ENDROOT
BRANCH   1   3
ATOM      2  C   UNL     1      -6.000  -4.864   3.296  0.00  0.00    +0.000 C 
ATOM      3  C   UNL     1      -4.868  -5.448   2.452  0.00  0.00    +0.000 C 
ENDBRANCH   1   3
BRANCH   1   4
ATOM      4  C   UNL     1      -3.806  -4.115   0.665  0.00  0.00    +0.000 C 
ATOM      5  C   UNL     1      -3.643  -5.280  -0.311  0.00  0.00    +0.000 C 
ENDBRANCH   1   4
BRANCH   1   6
ATOM      6  C   UNL     1      -3.907  -3.250   2.940  0.00  0.00    +0.000 C 
ATOM      7  C   UNL     1      -2.586  -2.940   3.639  0.00  0.00    +0.000 C 
ENDBRANCH   1   6
TORSDOF 3
ENDMDL
MODEL 9
REMARK VINA RESULT:    -2.518     13.668     14.757
REMARK INTER + INTRA:          -3.115
REMARK INTER:                  -2.960
REMARK INTRA:                  -0.155
REMARK UNBOUND:                -0.155
REMARK  Name = C:\DDRIVE\PROJECT\authml\backend\results\ligand_1764476311421.pdb
REMARK  6 active torsions:
REMARK  status: ('A' for Active; 'I' for Inactive)
REMARK    1  A    between atoms: C_1  and  C_2
REMARK    2  A    between atoms: C_2  and  N_3
REMARK    3  A    between atoms: N_3  and  C_4
REMARK    4  A    between atoms: N_3  and  C_6
REMARK    5  A    between atoms: C_4  and  C_5
REMARK    6  A    between atoms: C_6  and  C_7
REMARK                            x       y       z     vdW  Elec       q    Type
REMARK                         _______ _______ _______ _____ _____    ______ ____
ROOT
ATOM      1  N   UNL     1       9.752  -4.908  -1.943  0.00  0.00    +0.000 NA
ENDROOT
BRANCH   1   3
ATOM      2  C   UNL     1      10.800  -2.946  -3.084  0.00  0.00    +0.000 C 
ATOM      3  C   UNL     1      10.120  -3.491  -1.828  0.00  0.00    +0.000 C 
ENDBRANCH   1   3
BRANCH   1   4
ATOM      4  C   UNL     1       8.418  -5.229  -1.409  0.00  0.00    +0.000 C 
ATOM      5  C   UNL     1       8.373  -5.901  -0.037  0.00  0.00    +0.000 C 
ENDBRANCH   1   4
BRANCH   1   6
ATOM      6  C   UNL     1       9.929  -5.433  -3.307  0.00  0.00    +0.000 C 
ATOM      7  C   UNL     1       8.748  -6.274  -3.783  0.00  0.00    +0.000 C 
ENDBRANCH   1   6
TORSDOF 3
ENDMDL
