MODEL 1
REMARK VINA RESULT:    -3.112      0.000      0.000
REMARK INTER + INTRA:          -3.832
REMARK INTER:                  -3.658
REMARK INTRA:                  -0.174
REMARK UNBOUND:                -0.174
REMARK  Name = C:\Users\Bellamkonda Sowmya\Downloads\flask-backend\results\7def368a-83cf-428c-b8dc-4a759bad01a7_ligand.pdb
REMARK  6 active torsions:
REMARK  status: ('A' for Active; 'I' for Inactive)
REMARK    1  A    between atoms: C1_1  and  C2_2
REMARK    2  A    between atoms: C2_2  and  N1_3
REMARK    3  A    between atoms: N1_3  and  C3_4
REMARK    4  A    between atoms: N1_3  and  C5_6
REMARK    5  A    between atoms: C3_4  and  C4_5
REMARK    6  A    between atoms: C5_6  and  C6_7
REMARK                            x       y       z     vdW  Elec       q    Type
REMARK                         _______ _______ _______ _____ _____    ______ ____
ROOT
ATOM      1  N1  UNL     1       5.862   3.492   4.451  0.00  0.00    +0.000 NA
ENDROOT
BRANCH   1   3
ATOM      2  C1  UNL     1       5.549   4.974   6.472  0.00  0.00    +0.000 C 
ATOM      3  C2  UNL     1       5.059   4.570   5.073  0.00  0.00    +0.000 C 
ENDBRANCH   1   3
BRANCH   1   4
ATOM      4  C3  UNL     1       5.038   2.345   3.999  0.00  0.00    +0.000 C 
ATOM      5  C4  UNL     1       3.746   2.298   4.804  0.00  0.00    +0.000 C 
ENDBRANCH   1   4
BRANCH   1   6
ATOM      6  C5  UNL     1       7.023   3.095   5.275  0.00  0.00    +0.000 C 
ATOM      7  C6  UNL     1       7.439   1.658   4.974  0.00  0.00    +0.000 C 
ENDBRANCH   1   6
TORSDOF 3
ENDMDL
MODEL 2
REMARK VINA RESULT:    -3.068      0.713      2.455
REMARK INTER + INTRA:          -3.780
REMARK INTER:                  -3.628
REMARK INTRA:                  -0.152
REMARK UNBOUND:                -0.174
REMARK  Name = C:\Users\Bellamkonda Sowmya\Downloads\flask-backend\results\7def368a-83cf-428c-b8dc-4a759bad01a7_ligand.pdb
REMARK  6 active torsions:
REMARK  status: ('A' for Active; 'I' for Inactive)
REMARK    1  A    between atoms: C1_1  and  C2_2
REMARK    2  A    between atoms: C2_2  and  N1_3
REMARK    3  A    between atoms: N1_3  and  C3_4
REMARK    4  A    between atoms: N1_3  and  C5_6
REMARK    5  A    between atoms: C3_4  and  C4_5
REMARK    6  A    between atoms: C5_6  and  C6_7
REMARK                            x       y       z     vdW  Elec       q    Type
REMARK                         _______ _______ _______ _____ _____    ______ ____
ROOT
ATOM      1  N1  UNL     1       5.760   2.839   5.354  0.00  0.00    +0.000 NA
ENDROOT
BRANCH   1   3
ATOM      2  C1  UNL     1       3.324   2.270   5.002  0.00  0.00    +0.000 C 
ATOM      3  C2  UNL     1       4.785   2.017   4.600  0.00  0.00    +0.000 C 
ENDBRANCH   1   3
BRANCH   1   4
ATOM      4  C3  UNL     1       5.565   4.295   5.154  0.00  0.00    +0.000 C 
ATOM      5  C4  UNL     1       5.462   4.985   6.508  0.00  0.00    +0.000 C 
ENDBRANCH   1   4
BRANCH   1   6
ATOM      6  C5  UNL     1       7.156   2.397   5.153  0.00  0.00    +0.000 C 
ATOM      7  C6  UNL     1       7.202   1.006   4.527  0.00  0.00    +0.000 C 
ENDBRANCH   1   6
TORSDOF 3
ENDMDL
MODEL 3
REMARK VINA RESULT:    -3.064      1.649      2.233
REMARK INTER + INTRA:          -3.775
REMARK INTER:                  -3.575
REMARK INTRA:                  -0.200
REMARK UNBOUND:                -0.174
REMARK  Name = C:\Users\Bellamkonda Sowmya\Downloads\flask-backend\results\7def368a-83cf-428c-b8dc-4a759bad01a7_ligand.pdb
REMARK  6 active torsions:
REMARK  status: ('A' for Active; 'I' for Inactive)
REMARK    1  A    between atoms: C1_1  and  C2_2
REMARK    2  A    between atoms: C2_2  and  N1_3
REMARK    3  A    between atoms: N1_3  and  C3_4
REMARK    4  A    between atoms: N1_3  and  C5_6
REMARK    5  A    between atoms: C3_4  and  C4_5
REMARK    6  A    between atoms: C5_6  and  C6_7
REMARK                            x       y       z     vdW  Elec       q    Type
REMARK                         _______ _______ _______ _____ _____    ______ ____
ROOT
ATOM      1  N1  UNL     1       6.897   2.480   4.698  0.00  0.00    +0.000 NA
ENDROOT
BRANCH   1   3
ATOM      2  C1  UNL     1       6.490   2.955   7.146  0.00  0.00    +0.000 C 
ATOM      3  C2  UNL     1       7.462   2.451   6.067  0.00  0.00    +0.000 C 
ENDBRANCH   1   3
BRANCH   1   4
ATOM      4  C3  UNL     1       6.233   3.765   4.373  0.00  0.00    +0.000 C 
ATOM      5  C4  UNL     1       4.960   3.495   3.583  0.00  0.00    +0.000 C 
ENDBRANCH   1   4
BRANCH   1   6
ATOM      6  C5  UNL     1       6.066   1.294   4.397  0.00  0.00    +0.000 C 
ATOM      7  C6  UNL     1       6.793   0.009   4.781  0.00  0.00    +0.000 C 
ENDBRANCH   1   6
TORSDOF 3
ENDMDL
MODEL 4
REMARK VINA RESULT:    -3.037      1.616      2.454
REMARK INTER + INTRA:          -3.743
REMARK INTER:                  -3.548
REMARK INTRA:                  -0.195
REMARK UNBOUND:                -0.174
REMARK  Name = C:\Users\Bellamkonda Sowmya\Downloads\flask-backend\results\7def368a-83cf-428c-b8dc-4a759bad01a7_ligand.pdb
REMARK  6 active torsions:
REMARK  status: ('A' for Active; 'I' for Inactive)
REMARK    1  A    between atoms: C1_1  and  C2_2
REMARK    2  A    between atoms: C2_2  and  N1_3
REMARK    3  A    between atoms: N1_3  and  C3_4
REMARK    4  A    between atoms: N1_3  and  C5_6
REMARK    5  A    between atoms: C3_4  and  C4_5
REMARK    6  A    between atoms: C5_6  and  C6_7
REMARK                            x       y       z     vdW  Elec       q    Type
REMARK                         _______ _______ _______ _____ _____    ______ ____
ROOT
ATOM      1  N1  UNL     1       6.912   2.519   4.699  0.00  0.00    +0.000 NA
ENDROOT
BRANCH   1   3
ATOM      2  C1  UNL     1       4.908   3.503   3.516  0.00  0.00    +0.000 C 
ATOM      3  C2  UNL     1       6.147   3.750   4.391  0.00  0.00    +0.000 C 
ENDBRANCH   1   3
BRANCH   1   4
ATOM      4  C3  UNL     1       6.201   1.281   4.298  0.00  0.00    +0.000 C 
ATOM      5  C4  UNL     1       6.952   0.069   4.833  0.00  0.00    +0.000 C 
ENDBRANCH   1   4
BRANCH   1   6
ATOM      6  C5  UNL     1       7.411   2.490   6.090  0.00  0.00    +0.000 C 
ATOM      7  C6  UNL     1       6.372   3.059   7.053  0.00  0.00    +0.000 C 
ENDBRANCH   1   6
TORSDOF 3
ENDMDL
MODEL 5
REMARK VINA RESULT:    -3.032      0.714      2.534
REMARK INTER + INTRA:          -3.738
REMARK INTER:                  -3.584
REMARK INTRA:                  -0.154
REMARK UNBOUND:                -0.174
REMARK  Name = C:\Users\Bellamkonda Sowmya\Downloads\flask-backend\results\7def368a-83cf-428c-b8dc-4a759bad01a7_ligand.pdb
REMARK  6 active torsions:
REMARK  status: ('A' for Active; 'I' for Inactive)
REMARK    1  A    between atoms: C1_1  and  C2_2
REMARK    2  A    between atoms: C2_2  and  N1_3
REMARK    3  A    between atoms: N1_3  and  C3_4
REMARK    4  A    between atoms: N1_3  and  C5_6
REMARK    5  A    between atoms: C3_4  and  C4_5
REMARK    6  A    between atoms: C5_6  and  C6_7
REMARK                            x       y       z     vdW  Elec       q    Type
REMARK                         _______ _______ _______ _____ _____    ______ ____
ROOT
ATOM      1  N1  UNL     1       5.640   2.841   5.374  0.00  0.00    +0.000 NA
ENDROOT
BRANCH   1   3
ATOM      2  C1  UNL     1       5.415   5.083   6.516  0.00  0.00    +0.000 C 
ATOM      3  C2  UNL     1       5.453   4.300   5.195  0.00  0.00    +0.000 C 
ENDBRANCH   1   3
BRANCH   1   4
ATOM      4  C3  UNL     1       7.052   2.416   5.220  0.00  0.00    +0.000 C 
ATOM      5  C4  UNL     1       7.105   1.079   4.493  0.00  0.00    +0.000 C 
ENDBRANCH   1   4
BRANCH   1   6
ATOM      6  C5  UNL     1       4.692   2.041   4.570  0.00  0.00    +0.000 C 
ATOM      7  C6  UNL     1       3.256   2.275   5.029  0.00  0.00    +0.000 C 
ENDBRANCH   1   6
TORSDOF 3
ENDMDL
MODEL 6
REMARK VINA RESULT:    -2.981      1.586      3.310
REMARK INTER + INTRA:          -3.677
REMARK INTER:                  -3.478
REMARK INTRA:                  -0.200
REMARK UNBOUND:                -0.174
REMARK  Name = C:\Users\Bellamkonda Sowmya\Downloads\flask-backend\results\7def368a-83cf-428c-b8dc-4a759bad01a7_ligand.pdb
REMARK  6 active torsions:
REMARK  status: ('A' for Active; 'I' for Inactive)
REMARK    1  A    between atoms: C1_1  and  C2_2
REMARK    2  A    between atoms: C2_2  and  N1_3
REMARK    3  A    between atoms: N1_3  and  C3_4
REMARK    4  A    between atoms: N1_3  and  C5_6
REMARK    5  A    between atoms: C3_4  and  C4_5
REMARK    6  A    between atoms: C5_6  and  C6_7
REMARK                            x       y       z     vdW  Elec       q    Type
REMARK                         _______ _______ _______ _____ _____    ______ ____
ROOT
ATOM      1  N1  UNL     1       6.770   2.694   4.833  0.00  0.00    +0.000 NA
ENDROOT
BRANCH   1   3
ATOM      2  C1  UNL     1       6.940   0.177   4.687  0.00  0.00    +0.000 C 
ATOM      3  C2  UNL     1       6.152   1.446   4.327  0.00  0.00    +0.000 C 
ENDBRANCH   1   3
BRANCH   1   4
ATOM      4  C3  UNL     1       7.189   2.597   6.252  0.00  0.00    +0.000 C 
ATOM      5  C4  UNL     1       5.996   2.880   7.155  0.00  0.00    +0.000 C 
ENDBRANCH   1   4
BRANCH   1   6
ATOM      6  C5  UNL     1       5.959   3.894   4.538  0.00  0.00    +0.000 C 
ATOM      7  C6  UNL     1       4.833   3.563   3.562  0.00  0.00    +0.000 C 
ENDBRANCH   1   6
TORSDOF 3
ENDMDL
MODEL 7
REMARK VINA RESULT:    -2.975      1.450      2.799
REMARK INTER + INTRA:          -3.671
REMARK INTER:                  -3.469
REMARK INTRA:                  -0.202
REMARK UNBOUND:                -0.174
REMARK  Name = C:\Users\Bellamkonda Sowmya\Downloads\flask-backend\results\7def368a-83cf-428c-b8dc-4a759bad01a7_ligand.pdb
REMARK  6 active torsions:
REMARK  status: ('A' for Active; 'I' for Inactive)
REMARK    1  A    between atoms: C1_1  and  C2_2
REMARK    2  A    between atoms: C2_2  and  N1_3
REMARK    3  A    between atoms: N1_3  and  C3_4
REMARK    4  A    between atoms: N1_3  and  C5_6
REMARK    5  A    between atoms: C3_4  and  C4_5
REMARK    6  A    between atoms: C5_6  and  C6_7
REMARK                            x       y       z     vdW  Elec       q    Type
REMARK                         _______ _______ _______ _____ _____    ______ ____
ROOT
ATOM      1  N1  UNL     1       5.643   1.804   5.298  0.00  0.00    +0.000 NA
ENDROOT
BRANCH   1   3
ATOM      2  C1  UNL     1       6.200   3.262   7.284  0.00  0.00    +0.000 C 
ATOM      3  C2  UNL     1       6.668   2.647   5.956  0.00  0.00    +0.000 C 
ENDBRANCH   1   3
BRANCH   1   4
ATOM      4  C3  UNL     1       6.218   0.864   4.306  0.00  0.00    +0.000 C 
ATOM      5  C4  UNL     1       7.728   0.794   4.488  0.00  0.00    +0.000 C 
ENDBRANCH   1   4
BRANCH   1   6
ATOM      6  C5  UNL     1       4.506   2.592   4.774  0.00  0.00    +0.000 C 
ATOM      7  C6  UNL     1       4.929   3.417   3.562  0.00  0.00    +0.000 C 
ENDBRANCH   1   6
TORSDOF 3
ENDMDL
MODEL 8
REMARK VINA RESULT:    -2.890      1.464      3.106
REMARK INTER + INTRA:          -3.571
REMARK INTER:                  -3.421
REMARK INTRA:                  -0.150
REMARK UNBOUND:                -0.174
REMARK  Name = C:\Users\Bellamkonda Sowmya\Downloads\flask-backend\results\7def368a-83cf-428c-b8dc-4a759bad01a7_ligand.pdb
REMARK  6 active torsions:
REMARK  status: ('A' for Active; 'I' for Inactive)
REMARK    1  A    between atoms: C1_1  and  C2_2
REMARK    2  A    between atoms: C2_2  and  N1_3
REMARK    3  A    between atoms: N1_3  and  C3_4
REMARK    4  A    between atoms: N1_3  and  C5_6
REMARK    5  A    between atoms: C3_4  and  C4_5
REMARK    6  A    between atoms: C5_6  and  C6_7
REMARK                            x       y       z     vdW  Elec       q    Type
REMARK                         _______ _______ _______ _____ _____    ______ ____
ROOT
ATOM      1  N1  UNL     1       5.583   2.154   5.500  0.00  0.00    +0.000 NA
ENDROOT
BRANCH   1   3
ATOM      2  C1  UNL     1       7.223   0.519   4.490  0.00  0.00    +0.000 C 
ATOM      3  C2  UNL     1       6.977   1.928   5.052  0.00  0.00    +0.000 C 
ENDBRANCH   1   3
BRANCH   1   4
ATOM      4  C3  UNL     1       4.625   2.267   4.374  0.00  0.00    +0.000 C 
ATOM      5  C4  UNL     1       5.003   3.456   3.502  0.00  0.00    +0.000 C 
ENDBRANCH   1   4
BRANCH   1   6
ATOM      6  C5  UNL     1       5.470   3.252   6.483  0.00  0.00    +0.000 C 
ATOM      7  C6  UNL     1       4.073   3.294   7.095  0.00  0.00    +0.000 C 
ENDBRANCH   1   6
TORSDOF 3
ENDMDL
MODEL 9
REMARK VINA RESULT:    -2.881      1.624      2.543
REMARK INTER + INTRA:          -3.560
REMARK INTER:                  -3.418
REMARK INTRA:                  -0.142
REMARK UNBOUND:                -0.174
REMARK  Name = C:\Users\Bellamkonda Sowmya\Downloads\flask-backend\results\7def368a-83cf-428c-b8dc-4a759bad01a7_ligand.pdb
REMARK  6 active torsions:
REMARK  status: ('A' for Active; 'I' for Inactive)
REMARK    1  A    between atoms: C1_1  and  C2_2
REMARK    2  A    between atoms: C2_2  and  N1_3
REMARK    3  A    between atoms: N1_3  and  C3_4
REMARK    4  A    between atoms: N1_3  and  C5_6
REMARK    5  A    between atoms: C3_4  and  C4_5
REMARK    6  A    between atoms: C5_6  and  C6_7
REMARK                            x       y       z     vdW  Elec       q    Type
REMARK                         _______ _______ _______ _____ _____    ______ ____
ROOT
ATOM      1  N1  UNL     1       5.708   2.216   5.646  0.00  0.00    +0.000 NA
ENDROOT
BRANCH   1   3
ATOM      2  C1  UNL     1       4.992   3.462   3.568  0.00  0.00    +0.000 C 
ATOM      3  C2  UNL     1       4.577   2.811   4.897  0.00  0.00    +0.000 C 
ENDBRANCH   1   3
BRANCH   1   4
ATOM      4  C3  UNL     1       6.212   3.097   6.728  0.00  0.00    +0.000 C 
ATOM      5  C4  UNL     1       5.417   2.843   8.002  0.00  0.00    +0.000 C 
ENDBRANCH   1   4
BRANCH   1   6
ATOM      6  C5  UNL     1       6.773   1.702   4.760  0.00  0.00    +0.000 C 
ATOM      7  C6  UNL     1       6.708   0.181   4.656  0.00  0.00    +0.000 C 
ENDBRANCH   1   6
TORSDOF 3
ENDMDL
