MODEL 1
REMARK VINA RESULT:    -3.108      0.000      0.000
REMARK INTER + INTRA:          -3.803
REMARK INTER:                  -3.653
REMARK INTRA:                  -0.150
REMARK UNBOUND:                -0.150
REMARK  Name = results/6662ac35-70b4-4a52-97e0-8d851313347e_ligand.pdb
REMARK  6 active torsions:
REMARK  status: ('A' for Active; 'I' for Inactive)
REMARK    1  A    between atoms: C1_1  and  C2_2
REMARK    2  A    between atoms: C2_2  and  N1_3
REMARK    3  A    between atoms: N1_3  and  C3_4
REMARK    4  A    between atoms: N1_3  and  C5_6
REMARK    5  A    between atoms: C3_4  and  C4_5
REMARK    6  A    between atoms: C5_6  and  C6_7
REMARK                            x       y       z     vdW  Elec       q    Type
REMARK                         _______ _______ _______ _____ _____    ______ ____
ROOT
ATOM      1  N1  UNL     1       5.683   2.943   5.303  0.00  0.00    +0.000 NA
ENDROOT
BRANCH   1   3
ATOM      2  C1  UNL     1       3.329   2.308   4.985  0.00  0.00    +0.000 C 
ATOM      3  C2  UNL     1       4.763   2.072   4.526  0.00  0.00    +0.000 C 
ENDBRANCH   1   3
BRANCH   1   4
ATOM      4  C3  UNL     1       5.300   4.370   5.211  0.00  0.00    +0.000 C 
ATOM      5  C4  UNL     1       5.434   5.064   6.567  0.00  0.00    +0.000 C 
ENDBRANCH   1   4
BRANCH   1   6
ATOM      6  C5  UNL     1       7.094   2.758   4.890  0.00  0.00    +0.000 C 
ATOM      7  C6  UNL     1       7.388   1.290   4.585  0.00  0.00    +0.000 C 
ENDBRANCH   1   6
TORSDOF 3
ENDMDL
MODEL 2
REMARK VINA RESULT:    -3.099      0.168      3.168
REMARK INTER + INTRA:          -3.793
REMARK INTER:                  -3.642
REMARK INTRA:                  -0.151
REMARK UNBOUND:                -0.150
REMARK  Name = results/6662ac35-70b4-4a52-97e0-8d851313347e_ligand.pdb
REMARK  6 active torsions:
REMARK  status: ('A' for Active; 'I' for Inactive)
REMARK    1  A    between atoms: C1_1  and  C2_2
REMARK    2  A    between atoms: C2_2  and  N1_3
REMARK    3  A    between atoms: N1_3  and  C3_4
REMARK    4  A    between atoms: N1_3  and  C5_6
REMARK    5  A    between atoms: C3_4  and  C4_5
REMARK    6  A    between atoms: C5_6  and  C6_7
REMARK                            x       y       z     vdW  Elec       q    Type
REMARK                         _______ _______ _______ _____ _____    ______ ____
ROOT
ATOM      1  N1  UNL     1       5.735   2.860   5.383  0.00  0.00    +0.000 NA
ENDROOT
BRANCH   1   3
ATOM      2  C1  UNL     1       7.230   1.112   4.515  0.00  0.00    +0.000 C 
ATOM      3  C2  UNL     1       7.148   2.532   5.060  0.00  0.00    +0.000 C 
ENDBRANCH   1   3
BRANCH   1   4
ATOM      4  C3  UNL     1       4.786   2.038   4.599  0.00  0.00    +0.000 C 
ATOM      5  C4  UNL     1       3.341   2.325   5.007  0.00  0.00    +0.000 C 
ENDBRANCH   1   4
BRANCH   1   6
ATOM      6  C5  UNL     1       5.449   4.301   5.195  0.00  0.00    +0.000 C 
ATOM      7  C6  UNL     1       5.443   5.038   6.534  0.00  0.00    +0.000 C 
ENDBRANCH   1   6
TORSDOF 3
ENDMDL
MODEL 3
REMARK VINA RESULT:    -3.093      1.735      3.071
REMARK INTER + INTRA:          -3.786
REMARK INTER:                  -3.582
REMARK INTRA:                  -0.204
REMARK UNBOUND:                -0.150
REMARK  Name = results/6662ac35-70b4-4a52-97e0-8d851313347e_ligand.pdb
REMARK  6 active torsions:
REMARK  status: ('A' for Active; 'I' for Inactive)
REMARK    1  A    between atoms: C1_1  and  C2_2
REMARK    2  A    between atoms: C2_2  and  N1_3
REMARK    3  A    between atoms: N1_3  and  C3_4
REMARK    4  A    between atoms: N1_3  and  C5_6
REMARK    5  A    between atoms: C3_4  and  C4_5
REMARK    6  A    between atoms: C5_6  and  C6_7
REMARK                            x       y       z     vdW  Elec       q    Type
REMARK                         _______ _______ _______ _____ _____    ______ ____
ROOT
ATOM      1  N1  UNL     1       6.925   2.488   4.694  0.00  0.00    +0.000 NA
ENDROOT
BRANCH   1   3
ATOM      2  C1  UNL     1       4.969   3.480   3.584  0.00  0.00    +0.000 C 
ATOM      3  C2  UNL     1       6.227   3.766   4.394  0.00  0.00    +0.000 C 
ENDBRANCH   1   3
BRANCH   1   4
ATOM      4  C3  UNL     1       6.061   1.314   4.435  0.00  0.00    +0.000 C 
ATOM      5  C4  UNL     1       6.788   0.012   4.770  0.00  0.00    +0.000 C 
ENDBRANCH   1   4
BRANCH   1   6
ATOM      6  C5  UNL     1       7.439   2.456   6.084  0.00  0.00    +0.000 C 
ATOM      7  C6  UNL     1       6.412   3.028   7.061  0.00  0.00    +0.000 C 
ENDBRANCH   1   6
TORSDOF 3
ENDMDL
MODEL 4
REMARK VINA RESULT:    -3.092      0.121      3.212
REMARK INTER + INTRA:          -3.785
REMARK INTER:                  -3.634
REMARK INTRA:                  -0.151
REMARK UNBOUND:                -0.150
REMARK  Name = results/6662ac35-70b4-4a52-97e0-8d851313347e_ligand.pdb
REMARK  6 active torsions:
REMARK  status: ('A' for Active; 'I' for Inactive)
REMARK    1  A    between atoms: C1_1  and  C2_2
REMARK    2  A    between atoms: C2_2  and  N1_3
REMARK    3  A    between atoms: N1_3  and  C3_4
REMARK    4  A    between atoms: N1_3  and  C5_6
REMARK    5  A    between atoms: C3_4  and  C4_5
REMARK    6  A    between atoms: C5_6  and  C6_7
REMARK                            x       y       z     vdW  Elec       q    Type
REMARK                         _______ _______ _______ _____ _____    ______ ____
ROOT
ATOM      1  N1  UNL     1       5.634   3.042   5.307  0.00  0.00    +0.000 NA
ENDROOT
BRANCH   1   3
ATOM      2  C1  UNL     1       5.439   5.109   6.625  0.00  0.00    +0.000 C 
ATOM      3  C2  UNL     1       5.205   4.465   5.264  0.00  0.00    +0.000 C 
ENDBRANCH   1   3
BRANCH   1   4
ATOM      4  C3  UNL     1       7.018   2.870   4.809  0.00  0.00    +0.000 C 
ATOM      5  C4  UNL     1       7.369   1.389   4.662  0.00  0.00    +0.000 C 
ENDBRANCH   1   4
BRANCH   1   6
ATOM      6  C5  UNL     1       4.703   2.165   4.561  0.00  0.00    +0.000 C 
ATOM      7  C6  UNL     1       3.266   2.350   5.047  0.00  0.00    +0.000 C 
ENDBRANCH   1   6
TORSDOF 3
ENDMDL
MODEL 5
REMARK VINA RESULT:    -3.088      1.706      2.648
REMARK INTER + INTRA:          -3.780
REMARK INTER:                  -3.579
REMARK INTRA:                  -0.201
REMARK UNBOUND:                -0.150
REMARK  Name = results/6662ac35-70b4-4a52-97e0-8d851313347e_ligand.pdb
REMARK  6 active torsions:
REMARK  status: ('A' for Active; 'I' for Inactive)
REMARK    1  A    between atoms: C1_1  and  C2_2
REMARK    2  A    between atoms: C2_2  and  N1_3
REMARK    3  A    between atoms: N1_3  and  C3_4
REMARK    4  A    between atoms: N1_3  and  C5_6
REMARK    5  A    between atoms: C3_4  and  C4_5
REMARK    6  A    between atoms: C5_6  and  C6_7
REMARK                            x       y       z     vdW  Elec       q    Type
REMARK                         _______ _______ _______ _____ _____    ______ ____
ROOT
ATOM      1  N1  UNL     1       6.888   2.533   4.701  0.00  0.00    +0.000 NA
ENDROOT
BRANCH   1   3
ATOM      2  C1  UNL     1       6.845   0.075   4.760  0.00  0.00    +0.000 C 
ATOM      3  C2  UNL     1       6.065   1.333   4.397  0.00  0.00    +0.000 C 
ENDBRANCH   1   3
BRANCH   1   4
ATOM      4  C3  UNL     1       7.344   2.544   6.110  0.00  0.00    +0.000 C 
ATOM      5  C4  UNL     1       6.245   3.060   7.039  0.00  0.00    +0.000 C 
ENDBRANCH   1   4
BRANCH   1   6
ATOM      6  C5  UNL     1       6.170   3.787   4.379  0.00  0.00    +0.000 C 
ATOM      7  C6  UNL     1       4.923   3.506   3.540  0.00  0.00    +0.000 C 
ENDBRANCH   1   6
TORSDOF 3
ENDMDL
MODEL 6
REMARK VINA RESULT:    -3.074      1.743      2.423
REMARK INTER + INTRA:          -3.764
REMARK INTER:                  -3.557
REMARK INTRA:                  -0.207
REMARK UNBOUND:                -0.150
REMARK  Name = results/6662ac35-70b4-4a52-97e0-8d851313347e_ligand.pdb
REMARK  6 active torsions:
REMARK  status: ('A' for Active; 'I' for Inactive)
REMARK    1  A    between atoms: C1_1  and  C2_2
REMARK    2  A    between atoms: C2_2  and  N1_3
REMARK    3  A    between atoms: N1_3  and  C3_4
REMARK    4  A    between atoms: N1_3  and  C5_6
REMARK    5  A    between atoms: C3_4  and  C4_5
REMARK    6  A    between atoms: C5_6  and  C6_7
REMARK                            x       y       z     vdW  Elec       q    Type
REMARK                         _______ _______ _______ _____ _____    ______ ____
ROOT
ATOM      1  N1  UNL     1       6.806   2.543   4.872  0.00  0.00    +0.000 NA
ENDROOT
BRANCH   1   3
ATOM      2  C1  UNL     1       5.858   2.743   7.132  0.00  0.00    +0.000 C 
ATOM      3  C2  UNL     1       7.140   2.623   6.318  0.00  0.00    +0.000 C 
ENDBRANCH   1   3
BRANCH   1   4
ATOM      4  C3  UNL     1       6.158   3.783   4.388  0.00  0.00    +0.000 C 
ATOM      5  C4  UNL     1       4.953   3.463   3.502  0.00  0.00    +0.000 C 
ENDBRANCH   1   4
BRANCH   1   6
ATOM      6  C5  UNL     1       5.961   1.364   4.568  0.00  0.00    +0.000 C 
ATOM      7  C6  UNL     1       6.775   0.073   4.640  0.00  0.00    +0.000 C 
ENDBRANCH   1   6
TORSDOF 3
ENDMDL
MODEL 7
REMARK VINA RESULT:    -3.070      0.621      2.510
REMARK INTER + INTRA:          -3.758
REMARK INTER:                  -3.569
REMARK INTRA:                  -0.190
REMARK UNBOUND:                -0.150
REMARK  Name = results/6662ac35-70b4-4a52-97e0-8d851313347e_ligand.pdb
REMARK  6 active torsions:
REMARK  status: ('A' for Active; 'I' for Inactive)
REMARK    1  A    between atoms: C1_1  and  C2_2
REMARK    2  A    between atoms: C2_2  and  N1_3
REMARK    3  A    between atoms: N1_3  and  C3_4
REMARK    4  A    between atoms: N1_3  and  C5_6
REMARK    5  A    between atoms: C3_4  and  C4_5
REMARK    6  A    between atoms: C5_6  and  C6_7
REMARK                            x       y       z     vdW  Elec       q    Type
REMARK                         _______ _______ _______ _____ _____    ______ ____
ROOT
ATOM      1  N1  UNL     1       5.853   3.546   4.555  0.00  0.00    +0.000 NA
ENDROOT
BRANCH   1   3
ATOM      2  C1  UNL     1       7.432   1.700   4.939  0.00  0.00    +0.000 C 
ATOM      3  C2  UNL     1       6.809   2.959   5.530  0.00  0.00    +0.000 C 
ENDBRANCH   1   3
BRANCH   1   4
ATOM      4  C3  UNL     1       5.040   4.624   5.162  0.00  0.00    +0.000 C 
ATOM      5  C4  UNL     1       5.564   4.992   6.550  0.00  0.00    +0.000 C 
ENDBRANCH   1   4
BRANCH   1   6
ATOM      6  C5  UNL     1       4.977   2.513   3.955  0.00  0.00    +0.000 C 
ATOM      7  C6  UNL     1       3.735   2.281   4.815  0.00  0.00    +0.000 C 
ENDBRANCH   1   6
TORSDOF 3
ENDMDL
MODEL 8
REMARK VINA RESULT:    -2.991      1.363      1.800
REMARK INTER + INTRA:          -3.666
REMARK INTER:                  -3.459
REMARK INTRA:                  -0.207
REMARK UNBOUND:                -0.150
REMARK  Name = results/6662ac35-70b4-4a52-97e0-8d851313347e_ligand.pdb
REMARK  6 active torsions:
REMARK  status: ('A' for Active; 'I' for Inactive)
REMARK    1  A    between atoms: C1_1  and  C2_2
REMARK    2  A    between atoms: C2_2  and  N1_3
REMARK    3  A    between atoms: N1_3  and  C3_4
REMARK    4  A    between atoms: N1_3  and  C5_6
REMARK    5  A    between atoms: C3_4  and  C4_5
REMARK    6  A    between atoms: C5_6  and  C6_7
REMARK                            x       y       z     vdW  Elec       q    Type
REMARK                         _______ _______ _______ _____ _____    ______ ____
ROOT
ATOM      1  N1  UNL     1       5.594   1.837   5.215  0.00  0.00    +0.000 NA
ENDROOT
BRANCH   1   3
ATOM      2  C1  UNL     1       5.004   3.551   3.554  0.00  0.00    +0.000 C 
ATOM      3  C2  UNL     1       4.467   2.599   4.616  0.00  0.00    +0.000 C 
ENDBRANCH   1   3
BRANCH   1   4
ATOM      4  C3  UNL     1       6.615   2.735   5.800  0.00  0.00    +0.000 C 
ATOM      5  C4  UNL     1       6.258   3.109   7.239  0.00  0.00    +0.000 C 
ENDBRANCH   1   4
BRANCH   1   6
ATOM      6  C5  UNL     1       6.215   0.914   4.237  0.00  0.00    +0.000 C 
ATOM      7  C6  UNL     1       7.721   0.798   4.473  0.00  0.00    +0.000 C 
ENDBRANCH   1   6
TORSDOF 3
ENDMDL
MODEL 9
REMARK VINA RESULT:    -2.795      1.770      2.639
REMARK INTER + INTRA:          -3.436
REMARK INTER:                  -3.297
REMARK INTRA:                  -0.139
REMARK UNBOUND:                -0.150
REMARK  Name = results/6662ac35-70b4-4a52-97e0-8d851313347e_ligand.pdb
REMARK  6 active torsions:
REMARK  status: ('A' for Active; 'I' for Inactive)
REMARK    1  A    between atoms: C1_1  and  C2_2
REMARK    2  A    between atoms: C2_2  and  N1_3
REMARK    3  A    between atoms: N1_3  and  C3_4
REMARK    4  A    between atoms: N1_3  and  C5_6
REMARK    5  A    between atoms: C3_4  and  C4_5
REMARK    6  A    between atoms: C5_6  and  C6_7
REMARK                            x       y       z     vdW  Elec       q    Type
REMARK                         _______ _______ _______ _____ _____    ______ ____
ROOT
ATOM      1  N1  UNL     1       5.999   2.130   5.917  0.00  0.00    +0.000 NA
ENDROOT
BRANCH   1   3
ATOM      2  C1  UNL     1       7.068   0.585   4.331  0.00  0.00    +0.000 C 
ATOM      3  C2  UNL     1       7.107   1.982   4.938  0.00  0.00    +0.000 C 
ENDBRANCH   1   3
BRANCH   1   4
ATOM      4  C3  UNL     1       4.978   3.096   5.451  0.00  0.00    +0.000 C 
ATOM      5  C4  UNL     1       5.546   4.016   4.370  0.00  0.00    +0.000 C 
ENDBRANCH   1   4
BRANCH   1   6
ATOM      6  C5  UNL     1       6.498   2.512   7.258  0.00  0.00    +0.000 C 
ATOM      7  C6  UNL     1       7.332   1.388   7.873  0.00  0.00    +0.000 C 
ENDBRANCH   1   6
TORSDOF 3
ENDMDL
