MODEL 1
REMARK VINA RESULT:    -4.213      0.000      0.000
REMARK INTER + INTRA:          -5.725
REMARK INTER:                  -5.075
REMARK INTRA:                  -0.650
REMARK UNBOUND:                -0.650
REMARK  Name = C:\Users\Bellamkonda Sowmya\Downloads\flask-backend\results\e49648e9-5e16-4ec1-835b-e051db2c1b12_ligand.pdb
REMARK  5 active torsions:
REMARK  status: ('A' for Active; 'I' for Inactive)
REMARK    1  A    between atoms: C1_1  and  C2_2
REMARK    2  A    between atoms: C2_2  and  O2_4
REMARK    3  A    between atoms: O2_4  and  C3_5
REMARK    4  A    between atoms: C8_10  and  C9_11
REMARK    5  A    between atoms: C9_11  and  O4_13
REMARK                            x       y       z     vdW  Elec       q    Type
REMARK                         _______ _______ _______ _____ _____    ______ ____
ROOT
ATOM      1  C3  UNL     1      10.016  -3.985  -1.103  0.00  0.00    +0.000 A 
ATOM      2  C4  UNL     1       9.186  -4.815  -0.324  0.00  0.00    +0.000 A 
ATOM      3  C5  UNL     1       8.626  -5.972  -0.868  0.00  0.00    +0.000 A 
ATOM      4  C6  UNL     1       8.876  -6.311  -2.195  0.00  0.00    +0.000 A 
ATOM      5  C7  UNL     1       9.680  -5.490  -2.988  0.00  0.00    +0.000 A 
ATOM      6  C8  UNL     1      10.255  -4.318  -2.460  0.00  0.00    +0.000 A 
ENDROOT
BRANCH   6   7
ATOM      7  C9  UNL     1      11.103  -3.472  -3.341  0.00  0.00    +0.000 C 
ATOM      8  O3  UNL     1      12.270  -3.829  -3.654  0.00  0.00    +0.000 OA
BRANCH   7   9
ATOM      9  O4  UNL     1      10.612  -2.266  -3.833  0.00  0.00    +0.000 OA
ATOM     10  H8  UNL     1       9.615  -2.095  -3.896  0.00  0.00    +0.000 HD
ENDBRANCH   7   9
ENDBRANCH   6   7
BRANCH   1  11
ATOM     11  O2  UNL     1      10.570  -2.812  -0.564  0.00  0.00    +0.000 OA
BRANCH  11  13
ATOM     12  C1  UNL     1       9.687  -1.052   0.968  0.00  0.00    +0.000 C 
ATOM     13  C2  UNL     1       9.895  -1.596  -0.404  0.00  0.00    +0.000 C 
ATOM     14  O1  UNL     1       9.376  -1.006  -1.391  0.00  0.00    +0.000 OA
ENDBRANCH  11  13
ENDBRANCH   1  11
TORSDOF 4
ENDMDL
MODEL 2
REMARK VINA RESULT:    -4.166     13.795     14.816
REMARK INTER + INTRA:          -5.669
REMARK INTER:                  -5.030
REMARK INTRA:                  -0.639
REMARK UNBOUND:                -0.650
REMARK  Name = C:\Users\Bellamkonda Sowmya\Downloads\flask-backend\results\e49648e9-5e16-4ec1-835b-e051db2c1b12_ligand.pdb
REMARK  5 active torsions:
REMARK  status: ('A' for Active; 'I' for Inactive)
REMARK    1  A    between atoms: C1_1  and  C2_2
REMARK    2  A    between atoms: C2_2  and  O2_4
REMARK    3  A    between atoms: O2_4  and  C3_5
REMARK    4  A    between atoms: C8_10  and  C9_11
REMARK    5  A    between atoms: C9_11  and  O4_13
REMARK                            x       y       z     vdW  Elec       q    Type
REMARK                         _______ _______ _______ _____ _____    ______ ____
ROOT
ATOM      1  C3  UNL     1      -4.533  -3.920   0.566  0.00  0.00    +0.000 A 
ATOM      2  C4  UNL     1      -4.918  -2.578   0.753  0.00  0.00    +0.000 A 
ATOM      3  C5  UNL     1      -4.576  -1.897   1.922  0.00  0.00    +0.000 A 
ATOM      4  C6  UNL     1      -3.857  -2.546   2.922  0.00  0.00    +0.000 A 
ATOM      5  C7  UNL     1      -3.483  -3.881   2.763  0.00  0.00    +0.000 A 
ATOM      6  C8  UNL     1      -3.818  -4.588   1.592  0.00  0.00    +0.000 A 
ENDROOT
BRANCH   6   7
ATOM      7  C9  UNL     1      -3.402  -6.010   1.465  0.00  0.00    +0.000 C 
ATOM      8  O3  UNL     1      -3.996  -6.919   2.103  0.00  0.00    +0.000 OA
BRANCH   7   9
ATOM      9  O4  UNL     1      -2.341  -6.354   0.632  0.00  0.00    +0.000 OA
ATOM     10  H8  UNL     1      -2.147  -7.323   0.408  0.00  0.00    +0.000 HD
ENDBRANCH   7   9
ENDBRANCH   6   7
BRANCH   1  11
ATOM     11  O2  UNL     1      -4.887  -4.614  -0.604  0.00  0.00    +0.000 OA
BRANCH  11  13
ATOM     12  C1  UNL     1      -4.678  -3.642  -2.891  0.00  0.00    +0.000 C 
ATOM     13  C2  UNL     1      -4.196  -4.559  -1.819  0.00  0.00    +0.000 C 
ATOM     14  O1  UNL     1      -3.236  -5.342  -2.058  0.00  0.00    +0.000 OA
ENDBRANCH  11  13
ENDBRANCH   1  11
TORSDOF 4
ENDMDL
MODEL 3
REMARK VINA RESULT:    -4.047     14.174     15.170
REMARK INTER + INTRA:          -5.526
REMARK INTER:                  -4.896
REMARK INTRA:                  -0.629
REMARK UNBOUND:                -0.650
REMARK  Name = C:\Users\Bellamkonda Sowmya\Downloads\flask-backend\results\e49648e9-5e16-4ec1-835b-e051db2c1b12_ligand.pdb
REMARK  5 active torsions:
REMARK  status: ('A' for Active; 'I' for Inactive)
REMARK    1  A    between atoms: C1_1  and  C2_2
REMARK    2  A    between atoms: C2_2  and  O2_4
REMARK    3  A    between atoms: O2_4  and  C3_5
REMARK    4  A    between atoms: C8_10  and  C9_11
REMARK    5  A    between atoms: C9_11  and  O4_13
REMARK                            x       y       z     vdW  Elec       q    Type
REMARK                         _______ _______ _______ _____ _____    ______ ____
ROOT
ATOM      1  C3  UNL     1      -3.772  -4.340   1.655  0.00  0.00    +0.000 A 
ATOM      2  C4  UNL     1      -3.352  -3.811   2.891  0.00  0.00    +0.000 A 
ATOM      3  C5  UNL     1      -3.709  -2.516   3.268  0.00  0.00    +0.000 A 
ATOM      4  C6  UNL     1      -4.480  -1.728   2.417  0.00  0.00    +0.000 A 
ATOM      5  C7  UNL     1      -4.889  -2.228   1.179  0.00  0.00    +0.000 A 
ATOM      6  C8  UNL     1      -4.539  -3.532   0.778  0.00  0.00    +0.000 A 
ENDROOT
BRANCH   6   7
ATOM      7  C9  UNL     1      -4.995  -4.024  -0.549  0.00  0.00    +0.000 C 
ATOM      8  O3  UNL     1      -4.752  -3.372  -1.601  0.00  0.00    +0.000 OA
BRANCH   7   9
ATOM      9  O4  UNL     1      -5.702  -5.220  -0.645  0.00  0.00    +0.000 OA
ATOM     10  H8  UNL     1      -5.751  -5.860   0.138  0.00  0.00    +0.000 HD
ENDBRANCH   7   9
ENDBRANCH   6   7
BRANCH   1  11
ATOM     11  O2  UNL     1      -3.403  -5.638   1.265  0.00  0.00    +0.000 OA
BRANCH  11  13
ATOM     12  C1  UNL     1      -3.210  -8.084   1.715  0.00  0.00    +0.000 C 
ATOM     13  C2  UNL     1      -4.002  -6.821   1.715  0.00  0.00    +0.000 C 
ATOM     14  O1  UNL     1      -5.224  -6.854   2.025  0.00  0.00    +0.000 OA
ENDBRANCH  11  13
ENDBRANCH   1  11
TORSDOF 4
ENDMDL
MODEL 4
REMARK VINA RESULT:    -3.900      1.639      4.025
REMARK INTER + INTRA:          -5.349
REMARK INTER:                  -4.847
REMARK INTRA:                  -0.501
REMARK UNBOUND:                -0.650
REMARK  Name = C:\Users\Bellamkonda Sowmya\Downloads\flask-backend\results\e49648e9-5e16-4ec1-835b-e051db2c1b12_ligand.pdb
REMARK  5 active torsions:
REMARK  status: ('A' for Active; 'I' for Inactive)
REMARK    1  A    between atoms: C1_1  and  C2_2
REMARK    2  A    between atoms: C2_2  and  O2_4
REMARK    3  A    between atoms: O2_4  and  C3_5
REMARK    4  A    between atoms: C8_10  and  C9_11
REMARK    5  A    between atoms: C9_11  and  O4_13
REMARK                            x       y       z     vdW  Elec       q    Type
REMARK                         _______ _______ _______ _____ _____    ______ ____
ROOT
ATOM      1  C3  UNL     1       9.957  -3.156  -0.752  0.00  0.00    +0.000 A 
ATOM      2  C4  UNL     1      10.007  -4.346   0.001  0.00  0.00    +0.000 A 
ATOM      3  C5  UNL     1       9.969  -4.305   1.395  0.00  0.00    +0.000 A 
ATOM      4  C6  UNL     1       9.893  -3.083   2.057  0.00  0.00    +0.000 A 
ATOM      5  C7  UNL     1       9.863  -1.892   1.328  0.00  0.00    +0.000 A 
ATOM      6  C8  UNL     1       9.900  -1.910  -0.080  0.00  0.00    +0.000 A 
ENDROOT
BRANCH   6   7
ATOM      7  C9  UNL     1       9.867  -0.618  -0.817  0.00  0.00    +0.000 C 
ATOM      8  O3  UNL     1      10.547   0.369  -0.426  0.00  0.00    +0.000 OA
BRANCH   7   9
ATOM      9  O4  UNL     1       9.079  -0.484  -1.956  0.00  0.00    +0.000 OA
ATOM     10  H8  UNL     1       9.224  -1.079  -2.764  0.00  0.00    +0.000 HD
ENDBRANCH   7   9
ENDBRANCH   6   7
BRANCH   1  11
ATOM     11  O2  UNL     1      10.008  -3.191  -2.156  0.00  0.00    +0.000 OA
BRANCH  11  13
ATOM     12  C1  UNL     1      12.093  -4.087  -3.192  0.00  0.00    +0.000 C 
ATOM     13  C2  UNL     1      10.631  -4.185  -2.920  0.00  0.00    +0.000 C 
ATOM     14  O1  UNL     1       9.959  -5.106  -3.461  0.00  0.00    +0.000 OA
ENDBRANCH  11  13
ENDBRANCH   1  11
TORSDOF 4
ENDMDL
MODEL 5
REMARK VINA RESULT:    -3.770     13.974     14.866
REMARK INTER + INTRA:          -5.191
REMARK INTER:                  -4.672
REMARK INTRA:                  -0.519
REMARK UNBOUND:                -0.650
REMARK  Name = C:\Users\Bellamkonda Sowmya\Downloads\flask-backend\results\e49648e9-5e16-4ec1-835b-e051db2c1b12_ligand.pdb
REMARK  5 active torsions:
REMARK  status: ('A' for Active; 'I' for Inactive)
REMARK    1  A    between atoms: C1_1  and  C2_2
REMARK    2  A    between atoms: C2_2  and  O2_4
REMARK    3  A    between atoms: O2_4  and  C3_5
REMARK    4  A    between atoms: C8_10  and  C9_11
REMARK    5  A    between atoms: C9_11  and  O4_13
REMARK                            x       y       z     vdW  Elec       q    Type
REMARK                         _______ _______ _______ _____ _____    ______ ____
ROOT
ATOM      1  C3  UNL     1      -4.751  -2.643   0.818  0.00  0.00    +0.000 A 
ATOM      2  C4  UNL     1      -4.654  -1.902   2.012  0.00  0.00    +0.000 A 
ATOM      3  C5  UNL     1      -3.963  -2.413   3.111  0.00  0.00    +0.000 A 
ATOM      4  C6  UNL     1      -3.368  -3.670   3.039  0.00  0.00    +0.000 A 
ATOM      5  C7  UNL     1      -3.470  -4.427   1.870  0.00  0.00    +0.000 A 
ATOM      6  C8  UNL     1      -4.164  -3.931   0.749  0.00  0.00    +0.000 A 
ENDROOT
BRANCH   6   7
ATOM      7  C9  UNL     1      -4.249  -4.772  -0.475  0.00  0.00    +0.000 C 
ATOM      8  O3  UNL     1      -3.233  -5.366  -0.925  0.00  0.00    +0.000 OA
BRANCH   7   9
ATOM      9  O4  UNL     1      -5.463  -4.913  -1.141  0.00  0.00    +0.000 OA
ATOM     10  H8  UNL     1      -5.495  -5.216  -2.108  0.00  0.00    +0.000 HD
ENDBRANCH   7   9
ENDBRANCH   6   7
BRANCH   1  11
ATOM     11  O2  UNL     1      -5.458  -2.139  -0.287  0.00  0.00    +0.000 OA
BRANCH  11  13
ATOM     12  C1  UNL     1      -4.491   0.041  -1.020  0.00  0.00    +0.000 C 
ATOM     13  C2  UNL     1      -4.911  -1.360  -1.313  0.00  0.00    +0.000 C 
ATOM     14  O1  UNL     1      -4.858  -1.788  -2.498  0.00  0.00    +0.000 OA
ENDBRANCH  11  13
ENDBRANCH   1  11
TORSDOF 4
ENDMDL
MODEL 6
REMARK VINA RESULT:    -3.695      9.894     12.490
REMARK INTER + INTRA:          -5.101
REMARK INTER:                  -4.395
REMARK INTRA:                  -0.706
REMARK UNBOUND:                -0.650
REMARK  Name = C:\Users\Bellamkonda Sowmya\Downloads\flask-backend\results\e49648e9-5e16-4ec1-835b-e051db2c1b12_ligand.pdb
REMARK  5 active torsions:
REMARK  status: ('A' for Active; 'I' for Inactive)
REMARK    1  A    between atoms: C1_1  and  C2_2
REMARK    2  A    between atoms: C2_2  and  O2_4
REMARK    3  A    between atoms: O2_4  and  C3_5
REMARK    4  A    between atoms: C8_10  and  C9_11
REMARK    5  A    between atoms: C9_11  and  O4_13
REMARK                            x       y       z     vdW  Elec       q    Type
REMARK                         _______ _______ _______ _____ _____    ______ ____
ROOT
ATOM      1  C3  UNL     1       4.619  -1.008   7.607  0.00  0.00    +0.000 A 
ATOM      2  C4  UNL     1       4.124  -0.448   6.413  0.00  0.00    +0.000 A 
ATOM      3  C5  UNL     1       3.354   0.715   6.439  0.00  0.00    +0.000 A 
ATOM      4  C6  UNL     1       3.057   1.328   7.653  0.00  0.00    +0.000 A 
ATOM      5  C7  UNL     1       3.521   0.777   8.849  0.00  0.00    +0.000 A 
ATOM      6  C8  UNL     1       4.300  -0.396   8.845  0.00  0.00    +0.000 A 
ENDROOT
BRANCH   6   7
ATOM      7  C9  UNL     1       4.773  -0.950  10.142  0.00  0.00    +0.000 C 
ATOM      8  O3  UNL     1       5.615  -0.329  10.844  0.00  0.00    +0.000 OA
BRANCH   7   9
ATOM      9  O4  UNL     1       4.286  -2.172  10.599  0.00  0.00    +0.000 OA
ATOM     10  H8  UNL     1       3.293  -2.315  10.746  0.00  0.00    +0.000 HD
ENDBRANCH   7   9
ENDBRANCH   6   7
BRANCH   1  11
ATOM     11  O2  UNL     1       5.383  -2.187   7.587  0.00  0.00    +0.000 OA
BRANCH  11  13
ATOM     12  C1  UNL     1       5.324  -4.283   6.236  0.00  0.00    +0.000 C 
ATOM     13  C2  UNL     1       4.875  -3.479   7.408  0.00  0.00    +0.000 C 
ATOM     14  O1  UNL     1       3.974  -3.934   8.164  0.00  0.00    +0.000 OA
ENDBRANCH  11  13
ENDBRANCH   1  11
TORSDOF 4
ENDMDL
MODEL 7
REMARK VINA RESULT:    -3.691      7.684     10.255
REMARK INTER + INTRA:          -5.097
REMARK INTER:                  -4.394
REMARK INTRA:                  -0.702
REMARK UNBOUND:                -0.650
REMARK  Name = C:\Users\Bellamkonda Sowmya\Downloads\flask-backend\results\e49648e9-5e16-4ec1-835b-e051db2c1b12_ligand.pdb
REMARK  5 active torsions:
REMARK  status: ('A' for Active; 'I' for Inactive)
REMARK    1  A    between atoms: C1_1  and  C2_2
REMARK    2  A    between atoms: C2_2  and  O2_4
REMARK    3  A    between atoms: O2_4  and  C3_5
REMARK    4  A    between atoms: C8_10  and  C9_11
REMARK    5  A    between atoms: C9_11  and  O4_13
REMARK                            x       y       z     vdW  Elec       q    Type
REMARK                         _______ _______ _______ _____ _____    ______ ____
ROOT
ATOM      1  C3  UNL     1       6.196  -1.796   6.542  0.00  0.00    +0.000 A 
ATOM      2  C4  UNL     1       6.550  -0.526   6.046  0.00  0.00    +0.000 A 
ATOM      3  C5  UNL     1       5.591   0.481   5.923  0.00  0.00    +0.000 A 
ATOM      4  C6  UNL     1       4.269   0.234   6.282  0.00  0.00    +0.000 A 
ATOM      5  C7  UNL     1       3.896  -1.024   6.758  0.00  0.00    +0.000 A 
ATOM      6  C8  UNL     1       4.846  -2.055   6.889  0.00  0.00    +0.000 A 
ENDROOT
BRANCH   6   7
ATOM      7  C9  UNL     1       4.404  -3.381   7.398  0.00  0.00    +0.000 C 
ATOM      8  O3  UNL     1       4.026  -3.524   8.591  0.00  0.00    +0.000 OA
BRANCH   7   9
ATOM      9  O4  UNL     1       4.404  -4.488   6.553  0.00  0.00    +0.000 OA
ATOM     10  H8  UNL     1       4.724  -4.413   5.595  0.00  0.00    +0.000 HD
ENDBRANCH   7   9
ENDBRANCH   6   7
BRANCH   1  11
ATOM     11  O2  UNL     1       7.154  -2.817   6.654  0.00  0.00    +0.000 OA
BRANCH  11  13
ATOM     12  C1  UNL     1       8.901  -3.184   4.912  0.00  0.00    +0.000 C 
ATOM     13  C2  UNL     1       7.640  -3.592   5.594  0.00  0.00    +0.000 C 
ATOM     14  O1  UNL     1       6.979  -4.568   5.146  0.00  0.00    +0.000 OA
ENDBRANCH  11  13
ENDBRANCH   1  11
TORSDOF 4
ENDMDL
MODEL 8
REMARK VINA RESULT:    -3.680     13.963     15.123
REMARK INTER + INTRA:          -5.083
REMARK INTER:                  -4.818
REMARK INTRA:                  -0.266
REMARK UNBOUND:                -0.650
REMARK  Name = C:\Users\Bellamkonda Sowmya\Downloads\flask-backend\results\e49648e9-5e16-4ec1-835b-e051db2c1b12_ligand.pdb
REMARK  5 active torsions:
REMARK  status: ('A' for Active; 'I' for Inactive)
REMARK    1  A    between atoms: C1_1  and  C2_2
REMARK    2  A    between atoms: C2_2  and  O2_4
REMARK    3  A    between atoms: O2_4  and  C3_5
REMARK    4  A    between atoms: C8_10  and  C9_11
REMARK    5  A    between atoms: C9_11  and  O4_13
REMARK                            x       y       z     vdW  Elec       q    Type
REMARK                         _______ _______ _______ _____ _____    ______ ____
ROOT
ATOM      1  C3  UNL     1      -3.942  -4.130   0.790  0.00  0.00    +0.000 A 
ATOM      2  C4  UNL     1      -4.498  -3.722  -0.438  0.00  0.00    +0.000 A 
ATOM      3  C5  UNL     1      -5.097  -2.468  -0.564  0.00  0.00    +0.000 A 
ATOM      4  C6  UNL     1      -5.159  -1.610   0.531  0.00  0.00    +0.000 A 
ATOM      5  C7  UNL     1      -4.631  -2.006   1.761  0.00  0.00    +0.000 A 
ATOM      6  C8  UNL     1      -4.023  -3.267   1.912  0.00  0.00    +0.000 A 
ENDROOT
BRANCH   6   7
ATOM      7  C9  UNL     1      -3.475  -3.648   3.241  0.00  0.00    +0.000 C 
ATOM      8  O3  UNL     1      -4.126  -4.393   4.021  0.00  0.00    +0.000 OA
BRANCH   7   9
ATOM      9  O4  UNL     1      -2.225  -3.182   3.640  0.00  0.00    +0.000 OA
ATOM     10  H8  UNL     1      -1.566  -2.813   2.964  0.00  0.00    +0.000 HD
ENDBRANCH   7   9
ENDBRANCH   6   7
BRANCH   1  11
ATOM     11  O2  UNL     1      -3.350  -5.398   0.926  0.00  0.00    +0.000 OA
BRANCH  11  13
ATOM     12  C1  UNL     1      -3.231  -7.821   1.505  0.00  0.00    +0.000 C 
ATOM     13  C2  UNL     1      -4.004  -6.553   1.370  0.00  0.00    +0.000 C 
ATOM     14  O1  UNL     1      -5.250  -6.563   1.560  0.00  0.00    +0.000 OA
ENDBRANCH  11  13
ENDBRANCH   1  11
TORSDOF 4
ENDMDL
MODEL 9
REMARK VINA RESULT:    -3.633     14.267     15.521
REMARK INTER + INTRA:          -5.027
REMARK INTER:                  -4.474
REMARK INTRA:                  -0.553
REMARK UNBOUND:                -0.650
REMARK  Name = C:\Users\Bellamkonda Sowmya\Downloads\flask-backend\results\e49648e9-5e16-4ec1-835b-e051db2c1b12_ligand.pdb
REMARK  5 active torsions:
REMARK  status: ('A' for Active; 'I' for Inactive)
REMARK    1  A    between atoms: C1_1  and  C2_2
REMARK    2  A    between atoms: C2_2  and  O2_4
REMARK    3  A    between atoms: O2_4  and  C3_5
REMARK    4  A    between atoms: C8_10  and  C9_11
REMARK    5  A    between atoms: C9_11  and  O4_13
REMARK                            x       y       z     vdW  Elec       q    Type
REMARK                         _______ _______ _______ _____ _____    ______ ____
ROOT
ATOM      1  C3  UNL     1      -4.682  -2.890   0.742  0.00  0.00    +0.000 A 
ATOM      2  C4  UNL     1      -5.666  -2.091   0.126  0.00  0.00    +0.000 A 
ATOM      3  C5  UNL     1      -6.373  -1.142   0.865  0.00  0.00    +0.000 A 
ATOM      4  C6  UNL     1      -6.120  -0.984   2.225  0.00  0.00    +0.000 A 
ATOM      5  C7  UNL     1      -5.163  -1.781   2.856  0.00  0.00    +0.000 A 
ATOM      6  C8  UNL     1      -4.437  -2.745   2.130  0.00  0.00    +0.000 A 
ENDROOT
BRANCH   6   7
ATOM      7  C9  UNL     1      -3.428  -3.574   2.843  0.00  0.00    +0.000 C 
ATOM      8  O3  UNL     1      -2.782  -3.110   3.821  0.00  0.00    +0.000 OA
BRANCH   7   9
ATOM      9  O4  UNL     1      -3.185  -4.882   2.434  0.00  0.00    +0.000 OA
ATOM     10  H8  UNL     1      -2.258  -5.174   2.147  0.00  0.00    +0.000 HD
ENDBRANCH   7   9
ENDBRANCH   6   7
BRANCH   1  11
ATOM     11  O2  UNL     1      -3.977  -3.857   0.005  0.00  0.00    +0.000 OA
BRANCH  11  13
ATOM     12  C1  UNL     1      -5.281  -5.925  -0.491  0.00  0.00    +0.000 C 
ATOM     13  C2  UNL     1      -4.536  -4.717  -0.948  0.00  0.00    +0.000 C 
ATOM     14  O1  UNL     1      -4.336  -4.540  -2.180  0.00  0.00    +0.000 OA
ENDBRANCH  11  13
ENDBRANCH   1  11
TORSDOF 4
ENDMDL
