MODEL 1
REMARK VINA RESULT:    -2.935      0.000      0.000
REMARK INTER + INTRA:          -3.609
REMARK INTER:                  -3.450
REMARK INTRA:                  -0.159
REMARK UNBOUND:                -0.159
REMARK  Name = results/bbbf087d-c02e-48b9-8656-bcecbceb22f1_ligand.pdb
REMARK  6 active torsions:
REMARK  status: ('A' for Active; 'I' for Inactive)
REMARK    1  A    between atoms: C1_1  and  C2_2
REMARK    2  A    between atoms: C2_2  and  N1_3
REMARK    3  A    between atoms: N1_3  and  C3_4
REMARK    4  A    between atoms: N1_3  and  C5_6
REMARK    5  A    between atoms: C3_4  and  C4_5
REMARK    6  A    between atoms: C5_6  and  C6_7
REMARK                            x       y       z     vdW  Elec       q    Type
REMARK                         _______ _______ _______ _____ _____    ______ ____
ROOT
ATOM      1  N1  UNL     1      -4.573  -3.217   2.230  0.00  0.00    +0.000 NA
ENDROOT
BRANCH   1   3
ATOM      2  C1  UNL     1      -6.028  -1.327   2.829  0.00  0.00    +0.000 C 
ATOM      3  C2  UNL     1      -4.610  -1.749   2.463  0.00  0.00    +0.000 C 
ENDBRANCH   1   3
BRANCH   1   4
ATOM      4  C3  UNL     1      -3.643  -3.898   3.160  0.00  0.00    +0.000 C 
ATOM      5  C4  UNL     1      -2.639  -2.910   3.754  0.00  0.00    +0.000 C 
ENDBRANCH   1   4
BRANCH   1   6
ATOM      6  C5  UNL     1      -4.231  -3.542   0.826  0.00  0.00    +0.000 C 
ATOM      7  C6  UNL     1      -3.585  -4.923   0.725  0.00  0.00    +0.000 C 
ENDBRANCH   1   6
TORSDOF 3
ENDMDL
MODEL 2
REMARK VINA RESULT:    -2.906      0.219      3.134
REMARK INTER + INTRA:          -3.575
REMARK INTER:                  -3.415
REMARK INTRA:                  -0.160
REMARK UNBOUND:                -0.159
REMARK  Name = results/bbbf087d-c02e-48b9-8656-bcecbceb22f1_ligand.pdb
REMARK  6 active torsions:
REMARK  status: ('A' for Active; 'I' for Inactive)
REMARK    1  A    between atoms: C1_1  and  C2_2
REMARK    2  A    between atoms: C2_2  and  N1_3
REMARK    3  A    between atoms: N1_3  and  C3_4
REMARK    4  A    between atoms: N1_3  and  C5_6
REMARK    5  A    between atoms: C3_4  and  C4_5
REMARK    6  A    between atoms: C5_6  and  C6_7
REMARK                            x       y       z     vdW  Elec       q    Type
REMARK                         _______ _______ _______ _____ _____    ______ ____
ROOT
ATOM      1  N1  UNL     1      -4.537  -3.241   2.115  0.00  0.00    +0.000 NA
ENDROOT
BRANCH   1   3
ATOM      2  C1  UNL     1      -3.736  -4.811   0.400  0.00  0.00    +0.000 C 
ATOM      3  C2  UNL     1      -4.388  -3.457   0.651  0.00  0.00    +0.000 C 
ENDBRANCH   1   3
BRANCH   1   4
ATOM      4  C3  UNL     1      -4.580  -1.800   2.456  0.00  0.00    +0.000 C 
ATOM      5  C4  UNL     1      -6.004  -1.358   2.792  0.00  0.00    +0.000 C 
ENDBRANCH   1   4
BRANCH   1   6
ATOM      6  C5  UNL     1      -3.471  -3.923   2.882  0.00  0.00    +0.000 C 
ATOM      7  C6  UNL     1      -2.677  -2.925   3.725  0.00  0.00    +0.000 C 
ENDBRANCH   1   6
TORSDOF 3
ENDMDL
MODEL 3
REMARK VINA RESULT:    -2.878      0.167      3.152
REMARK INTER + INTRA:          -3.542
REMARK INTER:                  -3.408
REMARK INTRA:                  -0.134
REMARK UNBOUND:                -0.159
REMARK  Name = results/bbbf087d-c02e-48b9-8656-bcecbceb22f1_ligand.pdb
REMARK  6 active torsions:
REMARK  status: ('A' for Active; 'I' for Inactive)
REMARK    1  A    between atoms: C1_1  and  C2_2
REMARK    2  A    between atoms: C2_2  and  N1_3
REMARK    3  A    between atoms: N1_3  and  C3_4
REMARK    4  A    between atoms: N1_3  and  C5_6
REMARK    5  A    between atoms: C3_4  and  C4_5
REMARK    6  A    between atoms: C5_6  and  C6_7
REMARK                            x       y       z     vdW  Elec       q    Type
REMARK                         _______ _______ _______ _____ _____    ______ ____
ROOT
ATOM      1  N1  UNL     1      -4.583  -3.241   2.144  0.00  0.00    +0.000 NA
ENDROOT
BRANCH   1   3
ATOM      2  C1  UNL     1      -2.674  -2.982   3.671  0.00  0.00    +0.000 C 
ATOM      3  C2  UNL     1      -3.797  -3.905   3.217  0.00  0.00    +0.000 C 
ENDBRANCH   1   3
BRANCH   1   4
ATOM      4  C3  UNL     1      -4.132  -3.655   0.795  0.00  0.00    +0.000 C 
ATOM      5  C4  UNL     1      -3.604  -5.090   0.809  0.00  0.00    +0.000 C 
ENDBRANCH   1   4
BRANCH   1   6
ATOM      6  C5  UNL     1      -4.549  -1.766   2.271  0.00  0.00    +0.000 C 
ATOM      7  C6  UNL     1      -5.843  -1.239   2.891  0.00  0.00    +0.000 C 
ENDBRANCH   1   6
TORSDOF 3
ENDMDL
MODEL 4
REMARK VINA RESULT:    -2.762      1.446      2.945
REMARK INTER + INTRA:          -3.405
REMARK INTER:                  -3.208
REMARK INTRA:                  -0.197
REMARK UNBOUND:                -0.159
REMARK  Name = results/bbbf087d-c02e-48b9-8656-bcecbceb22f1_ligand.pdb
REMARK  6 active torsions:
REMARK  status: ('A' for Active; 'I' for Inactive)
REMARK    1  A    between atoms: C1_1  and  C2_2
REMARK    2  A    between atoms: C2_2  and  N1_3
REMARK    3  A    between atoms: N1_3  and  C3_4
REMARK    4  A    between atoms: N1_3  and  C5_6
REMARK    5  A    between atoms: C3_4  and  C4_5
REMARK    6  A    between atoms: C5_6  and  C6_7
REMARK                            x       y       z     vdW  Elec       q    Type
REMARK                         _______ _______ _______ _____ _____    ______ ____
ROOT
ATOM      1  N1  UNL     1      -3.793  -4.457   2.122  0.00  0.00    +0.000 NA
ENDROOT
BRANCH   1   3
ATOM      2  C1  UNL     1      -2.678  -2.977   3.738  0.00  0.00    +0.000 C 
ATOM      3  C2  UNL     1      -3.913  -3.177   2.869  0.00  0.00    +0.000 C 
ENDBRANCH   1   3
BRANCH   1   4
ATOM      4  C3  UNL     1      -3.850  -4.246   0.657  0.00  0.00    +0.000 C 
ATOM      5  C4  UNL     1      -4.602  -2.960   0.316  0.00  0.00    +0.000 C 
ENDBRANCH   1   4
BRANCH   1   6
ATOM      6  C5  UNL     1      -4.819  -5.438   2.544  0.00  0.00    +0.000 C 
ATOM      7  C6  UNL     1      -5.999  -4.740   3.219  0.00  0.00    +0.000 C 
ENDBRANCH   1   6
TORSDOF 3
ENDMDL
MODEL 5
REMARK VINA RESULT:    -2.626      1.773      2.992
REMARK INTER + INTRA:          -3.245
REMARK INTER:                  -3.093
REMARK INTRA:                  -0.152
REMARK UNBOUND:                -0.159
REMARK  Name = results/bbbf087d-c02e-48b9-8656-bcecbceb22f1_ligand.pdb
REMARK  6 active torsions:
REMARK  status: ('A' for Active; 'I' for Inactive)
REMARK    1  A    between atoms: C1_1  and  C2_2
REMARK    2  A    between atoms: C2_2  and  N1_3
REMARK    3  A    between atoms: N1_3  and  C3_4
REMARK    4  A    between atoms: N1_3  and  C5_6
REMARK    5  A    between atoms: C3_4  and  C4_5
REMARK    6  A    between atoms: C5_6  and  C6_7
REMARK                            x       y       z     vdW  Elec       q    Type
REMARK                         _______ _______ _______ _____ _____    ______ ____
ROOT
ATOM      1  N1  UNL     1      -3.652  -4.769   2.007  0.00  0.00    +0.000 NA
ENDROOT
BRANCH   1   3
ATOM      2  C1  UNL     1      -2.794  -3.107   3.603  0.00  0.00    +0.000 C 
ATOM      3  C2  UNL     1      -3.987  -3.974   3.218  0.00  0.00    +0.000 C 
ENDBRANCH   1   3
BRANCH   1   4
ATOM      4  C3  UNL     1      -3.941  -4.023   0.761  0.00  0.00    +0.000 C 
ATOM      5  C4  UNL     1      -5.442  -3.990   0.476  0.00  0.00    +0.000 C 
ENDBRANCH   1   4
BRANCH   1   6
ATOM      6  C5  UNL     1      -4.348  -6.077   2.000  0.00  0.00    +0.000 C 
ATOM      7  C6  UNL     1      -3.421  -7.188   1.508  0.00  0.00    +0.000 C 
ENDBRANCH   1   6
TORSDOF 3
ENDMDL
MODEL 6
REMARK VINA RESULT:    -2.506     13.742     14.816
REMARK INTER + INTRA:          -3.105
REMARK INTER:                  -2.963
REMARK INTRA:                  -0.142
REMARK UNBOUND:                -0.159
REMARK  Name = results/bbbf087d-c02e-48b9-8656-bcecbceb22f1_ligand.pdb
REMARK  6 active torsions:
REMARK  status: ('A' for Active; 'I' for Inactive)
REMARK    1  A    between atoms: C1_1  and  C2_2
REMARK    2  A    between atoms: C2_2  and  N1_3
REMARK    3  A    between atoms: N1_3  and  C3_4
REMARK    4  A    between atoms: N1_3  and  C5_6
REMARK    5  A    between atoms: C3_4  and  C4_5
REMARK    6  A    between atoms: C5_6  and  C6_7
REMARK                            x       y       z     vdW  Elec       q    Type
REMARK                         _______ _______ _______ _____ _____    ______ ____
ROOT
ATOM      1  N1  UNL     1       9.825  -5.011  -1.897  0.00  0.00    +0.000 NA
ENDROOT
BRANCH   1   3
ATOM      2  C1  UNL     1      10.858  -3.275  -3.300  0.00  0.00    +0.000 C 
ATOM      3  C2  UNL     1      10.188  -3.571  -1.963  0.00  0.00    +0.000 C 
ENDBRANCH   1   3
BRANCH   1   4
ATOM      4  C3  UNL     1      10.027  -5.689  -3.198  0.00  0.00    +0.000 C 
ATOM      5  C4  UNL     1       8.735  -6.349  -3.680  0.00  0.00    +0.000 C 
ENDBRANCH   1   4
BRANCH   1   6
ATOM      6  C5  UNL     1       8.435  -5.205  -1.423  0.00  0.00    +0.000 C 
ATOM      7  C6  UNL     1       8.413  -5.886  -0.055  0.00  0.00    +0.000 C 
ENDBRANCH   1   6
TORSDOF 3
ENDMDL
MODEL 7
REMARK VINA RESULT:    -2.486      1.881      3.723
REMARK INTER + INTRA:          -3.082
REMARK INTER:                  -2.922
REMARK INTRA:                  -0.160
REMARK UNBOUND:                -0.159
REMARK  Name = results/bbbf087d-c02e-48b9-8656-bcecbceb22f1_ligand.pdb
REMARK  6 active torsions:
REMARK  status: ('A' for Active; 'I' for Inactive)
REMARK    1  A    between atoms: C1_1  and  C2_2
REMARK    2  A    between atoms: C2_2  and  N1_3
REMARK    3  A    between atoms: N1_3  and  C3_4
REMARK    4  A    between atoms: N1_3  and  C5_6
REMARK    5  A    between atoms: C3_4  and  C4_5
REMARK    6  A    between atoms: C5_6  and  C6_7
REMARK                            x       y       z     vdW  Elec       q    Type
REMARK                         _______ _______ _______ _____ _____    ______ ____
ROOT
ATOM      1  N1  UNL     1      -4.230  -4.981   2.353  0.00  0.00    +0.000 NA
ENDROOT
BRANCH   1   3
ATOM      2  C1  UNL     1      -3.213  -5.619   0.207  0.00  0.00    +0.000 C 
ATOM      3  C2  UNL     1      -3.516  -6.067   1.632  0.00  0.00    +0.000 C 
ENDBRANCH   1   3
BRANCH   1   4
ATOM      4  C3  UNL     1      -5.623  -4.827   1.875  0.00  0.00    +0.000 C 
ATOM      5  C4  UNL     1      -6.598  -4.717   3.048  0.00  0.00    +0.000 C 
ENDBRANCH   1   4
BRANCH   1   6
ATOM      6  C5  UNL     1      -3.506  -3.692   2.261  0.00  0.00    +0.000 C 
ATOM      7  C6  UNL     1      -2.956  -3.274   3.624  0.00  0.00    +0.000 C 
ENDBRANCH   1   6
TORSDOF 3
ENDMDL
MODEL 8
REMARK VINA RESULT:    -2.404     14.181     15.101
REMARK INTER + INTRA:          -2.984
REMARK INTER:                  -2.825
REMARK INTRA:                  -0.159
REMARK UNBOUND:                -0.159
REMARK  Name = results/bbbf087d-c02e-48b9-8656-bcecbceb22f1_ligand.pdb
REMARK  6 active torsions:
REMARK  status: ('A' for Active; 'I' for Inactive)
REMARK    1  A    between atoms: C1_1  and  C2_2
REMARK    2  A    between atoms: C2_2  and  N1_3
REMARK    3  A    between atoms: N1_3  and  C3_4
REMARK    4  A    between atoms: N1_3  and  C5_6
REMARK    5  A    between atoms: C3_4  and  C4_5
REMARK    6  A    between atoms: C5_6  and  C6_7
REMARK                            x       y       z     vdW  Elec       q    Type
REMARK                         _______ _______ _______ _____ _____    ______ ____
ROOT
ATOM      1  N1  UNL     1      10.051  -4.230  -1.928  0.00  0.00    +0.000 NA
ENDROOT
BRANCH   1   3
ATOM      2  C1  UNL     1      10.260  -2.957   0.165  0.00  0.00    +0.000 C 
ATOM      3  C2  UNL     1       9.853  -2.896  -1.302  0.00  0.00    +0.000 C 
ENDBRANCH   1   3
BRANCH   1   4
ATOM      4  C3  UNL     1      10.663  -4.121  -3.272  0.00  0.00    +0.000 C 
ATOM      5  C4  UNL     1      12.183  -3.992  -3.174  0.00  0.00    +0.000 C 
ENDBRANCH   1   4
BRANCH   1   6
ATOM      6  C5  UNL     1       8.786  -4.997  -1.996  0.00  0.00    +0.000 C 
ATOM      7  C6  UNL     1       8.815  -6.000  -3.149  0.00  0.00    +0.000 C 
ENDBRANCH   1   6
TORSDOF 3
ENDMDL
MODEL 9
REMARK VINA RESULT:    -2.387     14.173     14.965
REMARK INTER + INTRA:          -2.964
REMARK INTER:                  -2.803
REMARK INTRA:                  -0.162
REMARK UNBOUND:                -0.159
REMARK  Name = results/bbbf087d-c02e-48b9-8656-bcecbceb22f1_ligand.pdb
REMARK  6 active torsions:
REMARK  status: ('A' for Active; 'I' for Inactive)
REMARK    1  A    between atoms: C1_1  and  C2_2
REMARK    2  A    between atoms: C2_2  and  N1_3
REMARK    3  A    between atoms: N1_3  and  C3_4
REMARK    4  A    between atoms: N1_3  and  C5_6
REMARK    5  A    between atoms: C3_4  and  C4_5
REMARK    6  A    between atoms: C5_6  and  C6_7
REMARK                            x       y       z     vdW  Elec       q    Type
REMARK                         _______ _______ _______ _____ _____    ______ ____
ROOT
ATOM      1  N1  UNL     1      10.038  -4.701  -1.930  0.00  0.00    +0.000 NA
ENDROOT
BRANCH   1   3
ATOM      2  C1  UNL     1       8.817  -6.188  -3.462  0.00  0.00    +0.000 C 
ATOM      3  C2  UNL     1       8.773  -5.457  -2.125  0.00  0.00    +0.000 C 
ENDBRANCH   1   3
BRANCH   1   4
ATOM      4  C3  UNL     1       9.851  -3.536  -1.035  0.00  0.00    +0.000 C 
ATOM      5  C4  UNL     1      10.013  -3.938   0.431  0.00  0.00    +0.000 C 
ENDBRANCH   1   4
BRANCH   1   6
ATOM      6  C5  UNL     1      10.627  -4.273  -3.220  0.00  0.00    +0.000 C 
ATOM      7  C6  UNL     1      10.796  -2.755  -3.269  0.00  0.00    +0.000 C 
ENDBRANCH   1   6
TORSDOF 3
ENDMDL
