MODEL 1
REMARK VINA RESULT:    -4.255      0.000      0.000
REMARK INTER + INTRA:           0.669
REMARK INTER:                  -4.380
REMARK INTRA:                   5.049
REMARK UNBOUND:                 5.049
REMARK  Name = C:\DDRIVE\PROJECT\RMPRF\authml\backend\results\ligand_1764568022098.pdb
REMARK  3 active torsions:
REMARK  status: ('A' for Active; 'I' for Inactive)
REMARK    1  A    between atoms: C_1  and  N_2
REMARK    2  A    between atoms: C_4  and  C_5
REMARK    3  A    between atoms: C_5  and  O_7
REMARK                            x       y       z     vdW  Elec       q    Type
REMARK                         _______ _______ _______ _____ _____    ______ ____
ROOT
ATOM      1  C   UNL     1      -3.409  -3.604   2.630  0.00  0.00    +0.000 C 
ATOM      2  N   UNL     1      -3.409  -3.604   2.630  0.00  0.00    +0.000 N 
ATOM      3  C   UNL     1      -3.982  -2.784   2.625  0.00  0.00    +0.000 C 
ATOM      4  C   UNL     1      -3.409  -3.604   2.630  0.00  0.00    +0.000 C 
ATOM      5  C   UNL     1      -3.029  -3.333   3.514  0.00  0.00    +0.000 C 
ATOM      6  C   UNL     1      -4.334  -4.138   3.398  0.00  0.00    +0.000 C 
ATOM      7  O   UNL     1      -2.817  -3.221   3.969  0.00  0.00    +0.000 OA
ENDROOT
BRANCH   4   8
ATOM      8  C   UNL     1      -4.191  -4.907   2.663  0.00  0.00    +0.000 C 
ATOM      9  O   UNL     1      -3.872  -5.910   1.950  0.00  0.00    +0.000 OA
BRANCH   8  10
ATOM     10  O   UNL     1      -5.330  -4.971   3.508  0.00  0.00    +0.000 OA
ATOM     11  H   UNL     1      -6.112  -5.537   3.251  0.00  0.00    +0.000 HD
ENDBRANCH   8  10
ENDBRANCH   4   8
TORSDOF 2
ENDMDL
