MODEL 1
REMARK VINA RESULT:    -2.925      0.000      0.000
REMARK INTER + INTRA:          -3.594
REMARK INTER:                  -3.438
REMARK INTRA:                  -0.156
REMARK UNBOUND:                -0.156
REMARK  Name = C:\Users\Bellamkonda Sowmya\OneDrive\Desktop\2nd yr notes\ps1\authml\authml\backend\results\ligand_1764589057181.pdb
REMARK  6 active torsions:
REMARK  status: ('A' for Active; 'I' for Inactive)
REMARK    1  A    between atoms: C_1  and  C_2
REMARK    2  A    between atoms: C_2  and  N_3
REMARK    3  A    between atoms: N_3  and  C_4
REMARK    4  A    between atoms: N_3  and  C_6
REMARK    5  A    between atoms: C_4  and  C_5
REMARK    6  A    between atoms: C_6  and  C_7
REMARK                            x       y       z     vdW  Elec       q    Type
REMARK                         _______ _______ _______ _____ _____    ______ ____
ROOT
ATOM      1  N   UNL     1      -4.520  -3.287   2.212  0.00  0.00    +0.000 NA
ENDROOT
BRANCH   1   3
ATOM      2  C   UNL     1      -5.936  -1.328   2.854  0.00  0.00    +0.000 C 
ATOM      3  C   UNL     1      -4.595  -1.822   2.322  0.00  0.00    +0.000 C 
ENDBRANCH   1   3
BRANCH   1   4
ATOM      4  C   UNL     1      -4.207  -3.771   0.855  0.00  0.00    +0.000 C 
ATOM      5  C   UNL     1      -3.496  -5.118   0.756  0.00  0.00    +0.000 C 
ENDBRANCH   1   4
BRANCH   1   6
ATOM      6  C   UNL     1      -3.619  -3.881   3.214  0.00  0.00    +0.000 C 
ATOM      7  C   UNL     1      -2.604  -2.887   3.769  0.00  0.00    +0.000 C 
ENDBRANCH   1   6
TORSDOF 3
ENDMDL
