MODEL 1
REMARK VINA RESULT:    -2.941      0.000      0.000
REMARK INTER + INTRA:          -3.612
REMARK INTER:                  -3.456
REMARK INTRA:                  -0.156
REMARK UNBOUND:                -0.156
REMARK  Name = C:\Users\Bellamkonda Sowmya\OneDrive\Documents\backend[1]\backend\results\ligand_1764364795079.pdb
REMARK  6 active torsions:
REMARK  status: ('A' for Active; 'I' for Inactive)
REMARK    1  A    between atoms: C_1  and  C_2
REMARK    2  A    between atoms: C_2  and  N_3
REMARK    3  A    between atoms: N_3  and  C_4
REMARK    4  A    between atoms: N_3  and  C_6
REMARK    5  A    between atoms: C_4  and  C_5
REMARK    6  A    between atoms: C_6  and  C_7
REMARK                            x       y       z     vdW  Elec       q    Type
REMARK                         _______ _______ _______ _____ _____    ______ ____
ROOT
ATOM      1  N   UNL     1      -4.537  -3.206   2.161  0.00  0.00    +0.000 NA
ENDROOT
BRANCH   1   3
ATOM      2  C   UNL     1      -5.961  -1.277   2.877  0.00  0.00    +0.000 C 
ATOM      3  C   UNL     1      -4.603  -1.751   2.366  0.00  0.00    +0.000 C 
ENDBRANCH   1   3
BRANCH   1   4
ATOM      4  C   UNL     1      -4.242  -3.604   0.773  0.00  0.00    +0.000 C 
ATOM      5  C   UNL     1      -3.558  -4.956   0.578  0.00  0.00    +0.000 C 
ENDBRANCH   1   4
BRANCH   1   6
ATOM      6  C   UNL     1      -3.630  -3.869   3.112  0.00  0.00    +0.000 C 
ATOM      7  C   UNL     1      -2.632  -2.909   3.755  0.00  0.00    +0.000 C 
ENDBRANCH   1   6
TORSDOF 3
ENDMDL
MODEL 2
REMARK VINA RESULT:    -2.926      0.320      3.126
REMARK INTER + INTRA:          -3.594
REMARK INTER:                  -3.452
REMARK INTRA:                  -0.142
REMARK UNBOUND:                -0.156
REMARK  Name = C:\Users\Bellamkonda Sowmya\OneDrive\Documents\backend[1]\backend\results\ligand_1764364795079.pdb
REMARK  6 active torsions:
REMARK  status: ('A' for Active; 'I' for Inactive)
REMARK    1  A    between atoms: C_1  and  C_2
REMARK    2  A    between atoms: C_2  and  N_3
REMARK    3  A    between atoms: N_3  and  C_4
REMARK    4  A    between atoms: N_3  and  C_6
REMARK    5  A    between atoms: C_4  and  C_5
REMARK    6  A    between atoms: C_6  and  C_7
REMARK                            x       y       z     vdW  Elec       q    Type
REMARK                         _______ _______ _______ _____ _____    ______ ____
ROOT
ATOM      1  N   UNL     1      -4.497  -3.381   2.137  0.00  0.00    +0.000 NA
ENDROOT
BRANCH   1   3
ATOM      2  C   UNL     1      -2.625  -2.925   3.735  0.00  0.00    +0.000 C 
ATOM      3  C   UNL     1      -3.759  -3.858   3.317  0.00  0.00    +0.000 C 
ENDBRANCH   1   3
BRANCH   1   4
ATOM      4  C   UNL     1      -4.679  -1.919   2.094  0.00  0.00    +0.000 C 
ATOM      5  C   UNL     1      -5.861  -1.352   2.878  0.00  0.00    +0.000 C 
ENDBRANCH   1   4
BRANCH   1   6
ATOM      6  C   UNL     1      -3.931  -3.888   0.876  0.00  0.00    +0.000 C 
ATOM      7  C   UNL     1      -3.454  -5.335   0.974  0.00  0.00    +0.000 C 
ENDBRANCH   1   6
TORSDOF 3
ENDMDL
MODEL 3
REMARK VINA RESULT:    -2.883      0.608      2.961
REMARK INTER + INTRA:          -3.545
REMARK INTER:                  -3.389
REMARK INTRA:                  -0.156
REMARK UNBOUND:                -0.156
REMARK  Name = C:\Users\Bellamkonda Sowmya\OneDrive\Documents\backend[1]\backend\results\ligand_1764364795079.pdb
REMARK  6 active torsions:
REMARK  status: ('A' for Active; 'I' for Inactive)
REMARK    1  A    between atoms: C_1  and  C_2
REMARK    2  A    between atoms: C_2  and  N_3
REMARK    3  A    between atoms: N_3  and  C_4
REMARK    4  A    between atoms: N_3  and  C_6
REMARK    5  A    between atoms: C_4  and  C_5
REMARK    6  A    between atoms: C_6  and  C_7
REMARK                            x       y       z     vdW  Elec       q    Type
REMARK                         _______ _______ _______ _____ _____    ______ ____
ROOT
ATOM      1  N   UNL     1      -4.245  -3.062   2.066  0.00  0.00    +0.000 NA
ENDROOT
BRANCH   1   3
ATOM      2  C   UNL     1      -3.495  -5.193   0.989  0.00  0.00    +0.000 C 
ATOM      3  C   UNL     1      -4.059  -3.787   0.800  0.00  0.00    +0.000 C 
ENDBRANCH   1   3
BRANCH   1   4
ATOM      4  C   UNL     1      -5.652  -2.757   2.382  0.00  0.00    +0.000 C 
ATOM      5  C   UNL     1      -5.958  -1.333   2.842  0.00  0.00    +0.000 C 
ENDBRANCH   1   4
BRANCH   1   6
ATOM      6  C   UNL     1      -3.573  -3.722   3.198  0.00  0.00    +0.000 C 
ATOM      7  C   UNL     1      -2.513  -2.843   3.858  0.00  0.00    +0.000 C 
ENDBRANCH   1   6
TORSDOF 3
ENDMDL
MODEL 4
REMARK VINA RESULT:    -2.769      0.431      3.123
REMARK INTER + INTRA:          -3.410
REMARK INTER:                  -3.262
REMARK INTRA:                  -0.148
REMARK UNBOUND:                -0.156
REMARK  Name = C:\Users\Bellamkonda Sowmya\OneDrive\Documents\backend[1]\backend\results\ligand_1764364795079.pdb
REMARK  6 active torsions:
REMARK  status: ('A' for Active; 'I' for Inactive)
REMARK    1  A    between atoms: C_1  and  C_2
REMARK    2  A    between atoms: C_2  and  N_3
REMARK    3  A    between atoms: N_3  and  C_4
REMARK    4  A    between atoms: N_3  and  C_6
REMARK    5  A    between atoms: C_4  and  C_5
REMARK    6  A    between atoms: C_6  and  C_7
REMARK                            x       y       z     vdW  Elec       q    Type
REMARK                         _______ _______ _______ _____ _____    ______ ____
ROOT
ATOM      1  N   UNL     1      -4.627  -3.222   2.069  0.00  0.00    +0.000 NA
ENDROOT
BRANCH   1   3
ATOM      2  C   UNL     1      -3.910  -4.611   0.115  0.00  0.00    +0.000 C 
ATOM      3  C   UNL     1      -4.923  -3.623   0.685  0.00  0.00    +0.000 C 
ENDBRANCH   1   3
BRANCH   1   4
ATOM      4  C   UNL     1      -3.391  -3.812   2.613  0.00  0.00    +0.000 C 
ATOM      5  C   UNL     1      -2.687  -3.029   3.720  0.00  0.00    +0.000 C 
ENDBRANCH   1   4
BRANCH   1   6
ATOM      6  C   UNL     1      -4.648  -1.761   2.250  0.00  0.00    +0.000 C 
ATOM      7  C   UNL     1      -5.912  -1.263   2.947  0.00  0.00    +0.000 C 
ENDBRANCH   1   6
TORSDOF 3
ENDMDL
MODEL 5
REMARK VINA RESULT:    -2.730      1.165      2.766
REMARK INTER + INTRA:          -3.364
REMARK INTER:                  -3.201
REMARK INTRA:                  -0.163
REMARK UNBOUND:                -0.156
REMARK  Name = C:\Users\Bellamkonda Sowmya\OneDrive\Documents\backend[1]\backend\results\ligand_1764364795079.pdb
REMARK  6 active torsions:
REMARK  status: ('A' for Active; 'I' for Inactive)
REMARK    1  A    between atoms: C_1  and  C_2
REMARK    2  A    between atoms: C_2  and  N_3
REMARK    3  A    between atoms: N_3  and  C_4
REMARK    4  A    between atoms: N_3  and  C_6
REMARK    5  A    between atoms: C_4  and  C_5
REMARK    6  A    between atoms: C_6  and  C_7
REMARK                            x       y       z     vdW  Elec       q    Type
REMARK                         _______ _______ _______ _____ _____    ______ ____
ROOT
ATOM      1  N   UNL     1      -3.604  -3.895   1.539  0.00  0.00    +0.000 NA
ENDROOT
BRANCH   1   3
ATOM      2  C   UNL     1      -4.947  -1.837   1.067  0.00  0.00    +0.000 C 
ATOM      3  C   UNL     1      -4.504  -3.218   0.592  0.00  0.00    +0.000 C 
ENDBRANCH   1   3
BRANCH   1   4
ATOM      4  C   UNL     1      -3.864  -3.567   2.952  0.00  0.00    +0.000 C 
ATOM      5  C   UNL     1      -2.697  -2.982   3.746  0.00  0.00    +0.000 C 
ENDBRANCH   1   4
BRANCH   1   6
ATOM      6  C   UNL     1      -3.555  -5.351   1.328  0.00  0.00    +0.000 C 
ATOM      7  C   UNL     1      -4.633  -6.104   2.104  0.00  0.00    +0.000 C 
ENDBRANCH   1   6
TORSDOF 3
ENDMDL
MODEL 6
REMARK VINA RESULT:    -2.698      1.452      2.723
REMARK INTER + INTRA:          -3.327
REMARK INTER:                  -3.207
REMARK INTRA:                  -0.120
REMARK UNBOUND:                -0.156
REMARK  Name = C:\Users\Bellamkonda Sowmya\OneDrive\Documents\backend[1]\backend\results\ligand_1764364795079.pdb
REMARK  6 active torsions:
REMARK  status: ('A' for Active; 'I' for Inactive)
REMARK    1  A    between atoms: C_1  and  C_2
REMARK    2  A    between atoms: C_2  and  N_3
REMARK    3  A    between atoms: N_3  and  C_4
REMARK    4  A    between atoms: N_3  and  C_6
REMARK    5  A    between atoms: C_4  and  C_5
REMARK    6  A    between atoms: C_6  and  C_7
REMARK                            x       y       z     vdW  Elec       q    Type
REMARK                         _______ _______ _______ _____ _____    ______ ____
ROOT
ATOM      1  N   UNL     1      -3.633  -4.261   1.506  0.00  0.00    +0.000 NA
ENDROOT
BRANCH   1   3
ATOM      2  C   UNL     1      -2.760  -3.121   3.555  0.00  0.00    +0.000 C 
ATOM      3  C   UNL     1      -3.925  -3.844   2.886  0.00  0.00    +0.000 C 
ENDBRANCH   1   3
BRANCH   1   4
ATOM      4  C   UNL     1      -3.440  -5.713   1.345  0.00  0.00    +0.000 C 
ATOM      5  C   UNL     1      -2.826  -6.181   0.027  0.00  0.00    +0.000 C 
ENDBRANCH   1   4
BRANCH   1   6
ATOM      6  C   UNL     1      -4.615  -3.741   0.540  0.00  0.00    +0.000 C 
ATOM      7  C   UNL     1      -4.778  -2.225   0.611  0.00  0.00    +0.000 C 
ENDBRANCH   1   6
TORSDOF 3
ENDMDL
MODEL 7
REMARK VINA RESULT:    -2.681      1.235      2.797
REMARK INTER + INTRA:          -3.307
REMARK INTER:                  -3.130
REMARK INTRA:                  -0.177
REMARK UNBOUND:                -0.156
REMARK  Name = C:\Users\Bellamkonda Sowmya\OneDrive\Documents\backend[1]\backend\results\ligand_1764364795079.pdb
REMARK  6 active torsions:
REMARK  status: ('A' for Active; 'I' for Inactive)
REMARK    1  A    between atoms: C_1  and  C_2
REMARK    2  A    between atoms: C_2  and  N_3
REMARK    3  A    between atoms: N_3  and  C_4
REMARK    4  A    between atoms: N_3  and  C_6
REMARK    5  A    between atoms: C_4  and  C_5
REMARK    6  A    between atoms: C_6  and  C_7
REMARK                            x       y       z     vdW  Elec       q    Type
REMARK                         _______ _______ _______ _____ _____    ______ ____
ROOT
ATOM      1  N   UNL     1      -4.375  -3.233   2.112  0.00  0.00    +0.000 NA
ENDROOT
BRANCH   1   3
ATOM      2  C   UNL     1      -2.519  -2.853   3.747  0.00  0.00    +0.000 C 
ATOM      3  C   UNL     1      -3.685  -3.736   3.309  0.00  0.00    +0.000 C 
ENDBRANCH   1   3
BRANCH   1   4
ATOM      4  C   UNL     1      -5.637  -3.931   1.809  0.00  0.00    +0.000 C 
ATOM      5  C   UNL     1      -6.066  -5.025   2.784  0.00  0.00    +0.000 C 
ENDBRANCH   1   4
BRANCH   1   6
ATOM      6  C   UNL     1      -4.564  -1.773   2.141  0.00  0.00    +0.000 C 
ATOM      7  C   UNL     1      -5.835  -1.350   2.874  0.00  0.00    +0.000 C 
ENDBRANCH   1   6
TORSDOF 3
ENDMDL
MODEL 8
REMARK VINA RESULT:    -2.628      1.505      2.839
REMARK INTER + INTRA:          -3.245
REMARK INTER:                  -3.095
REMARK INTRA:                  -0.150
REMARK UNBOUND:                -0.156
REMARK  Name = C:\Users\Bellamkonda Sowmya\OneDrive\Documents\backend[1]\backend\results\ligand_1764364795079.pdb
REMARK  6 active torsions:
REMARK  status: ('A' for Active; 'I' for Inactive)
REMARK    1  A    between atoms: C_1  and  C_2
REMARK    2  A    between atoms: C_2  and  N_3
REMARK    3  A    between atoms: N_3  and  C_4
REMARK    4  A    between atoms: N_3  and  C_6
REMARK    5  A    between atoms: C_4  and  C_5
REMARK    6  A    between atoms: C_6  and  C_7
REMARK                            x       y       z     vdW  Elec       q    Type
REMARK                         _______ _______ _______ _____ _____    ______ ____
ROOT
ATOM      1  N   UNL     1      -3.586  -3.931   1.453  0.00  0.00    +0.000 NA
ENDROOT
BRANCH   1   3
ATOM      2  C   UNL     1      -3.898  -6.400   1.709  0.00  0.00    +0.000 C 
ATOM      3  C   UNL     1      -3.411  -5.252   0.830  0.00  0.00    +0.000 C 
ENDBRANCH   1   3
BRANCH   1   4
ATOM      4  C   UNL     1      -4.690  -3.139   0.880  0.00  0.00    +0.000 C 
ATOM      5  C   UNL     1      -4.970  -3.330  -0.609  0.00  0.00    +0.000 C 
ENDBRANCH   1   4
BRANCH   1   6
ATOM      6  C   UNL     1      -3.687  -4.007   2.920  0.00  0.00    +0.000 C 
ATOM      7  C   UNL     1      -2.744  -3.041   3.634  0.00  0.00    +0.000 C 
ENDBRANCH   1   6
TORSDOF 3
ENDMDL
MODEL 9
REMARK VINA RESULT:    -2.548     13.640     14.595
REMARK INTER + INTRA:          -3.151
REMARK INTER:                  -3.000
REMARK INTRA:                  -0.151
REMARK UNBOUND:                -0.156
REMARK  Name = C:\Users\Bellamkonda Sowmya\OneDrive\Documents\backend[1]\backend\results\ligand_1764364795079.pdb
REMARK  6 active torsions:
REMARK  status: ('A' for Active; 'I' for Inactive)
REMARK    1  A    between atoms: C_1  and  C_2
REMARK    2  A    between atoms: C_2  and  N_3
REMARK    3  A    between atoms: N_3  and  C_4
REMARK    4  A    between atoms: N_3  and  C_6
REMARK    5  A    between atoms: C_4  and  C_5
REMARK    6  A    between atoms: C_6  and  C_7
REMARK                            x       y       z     vdW  Elec       q    Type
REMARK                         _______ _______ _______ _____ _____    ______ ____
ROOT
ATOM      1  N   UNL     1       9.717  -4.930  -1.972  0.00  0.00    +0.000 NA
ENDROOT
BRANCH   1   3
ATOM      2  C   UNL     1       8.409  -5.972  -0.111  0.00  0.00    +0.000 C 
ATOM      3  C   UNL     1       8.388  -5.105  -1.366  0.00  0.00    +0.000 C 
ENDBRANCH   1   3
BRANCH   1   4
ATOM      4  C   UNL     1       9.850  -5.530  -3.312  0.00  0.00    +0.000 C 
ATOM      5  C   UNL     1       8.671  -6.365  -3.808  0.00  0.00    +0.000 C 
ENDBRANCH   1   4
BRANCH   1   6
ATOM      6  C   UNL     1      10.160  -3.526  -1.968  0.00  0.00    +0.000 C 
ATOM      7  C   UNL     1      10.825  -3.105  -3.277  0.00  0.00    +0.000 C 
ENDBRANCH   1   6
TORSDOF 3
ENDMDL
