MODEL 1
REMARK VINA RESULT:    -4.582      0.000      0.000
REMARK INTER + INTRA:          -8.001
REMARK INTER:                  -6.725
REMARK INTRA:                  -1.276
REMARK UNBOUND:                -1.276
REMARK  Name = C:\DDRIVE\PROJECT\RMPRF\authml\backend\results\ligand_1764561218313.pdb
REMARK  10 active torsions:
REMARK  status: ('A' for Active; 'I' for Inactive)
REMARK    1  A    between atoms: C_1  and  C_2
REMARK    2  A    between atoms: C_2  and  C_3
REMARK    3  A    between atoms: C_3  and  C_4
REMARK    4  A    between atoms: C_4  and  N_5
REMARK    5  A    between atoms: N_5  and  C_6
REMARK    6  A    between atoms: N_5  and  C_8
REMARK    7  A    between atoms: C_6  and  C_7
REMARK    8  A    between atoms: C_9  and  N_10
REMARK    9  A    between atoms: C_14  and  C_15
REMARK   10  A    between atoms: C_20  and  N_21
REMARK                            x       y       z     vdW  Elec       q    Type
REMARK                         _______ _______ _______ _____ _____    ______ ____
ROOT
ATOM      1  C   UNL     1      -6.396  -0.501   0.723  0.00  0.00    +0.000 A 
ATOM      2  C   UNL     1      -6.577  -0.847   2.110  0.00  0.00    +0.000 A 
ATOM      3  C   UNL     1      -5.731  -1.719   2.861  0.00  0.00    +0.000 A 
ATOM      4  C   UNL     1      -4.658  -2.371   2.276  0.00  0.00    +0.000 A 
ATOM      5  C   UNL     1      -4.438  -2.110   0.935  0.00  0.00    +0.000 A 
ATOM      6  C   UNL     1      -5.240  -1.178   0.208  0.00  0.00    +0.000 A 
ENDROOT
BRANCH   4   7
ATOM      7  C   UNL     1      -3.771  -3.316   3.040  0.00  0.00    +0.000 C 
ATOM      8  F   UNL     1      -2.927  -2.685   3.899  0.00  0.00    +0.000 F 
ATOM      9  F   UNL     1      -4.476  -4.203   3.785  0.00  0.00    +0.000 F 
ATOM     10  F   UNL     1      -2.984  -4.058   2.214  0.00  0.00    +0.000 F 
ENDBRANCH   4   7
BRANCH   2  11
ATOM     11  N   UNL     1      -7.635  -0.347   2.971  0.00  0.00    +0.000 N 
ATOM     12  O   UNL     1      -7.282   0.299   3.971  0.00  0.00    +0.000 OA
ATOM     13  O   UNL     1      -8.797  -0.459   2.561  0.00  0.00    +0.000 OA
ENDBRANCH   2  11
BRANCH   6  14
ATOM     14  N   UNL     1      -4.652  -0.949  -1.100  0.00  0.00    +0.000 N 
ATOM     15  O   UNL     1      -4.976  -1.731  -2.003  0.00  0.00    +0.000 OA
ATOM     16  O   UNL     1      -4.017   0.105  -1.256  0.00  0.00    +0.000 OA
ENDBRANCH   6  14
BRANCH   1  17
ATOM     17  N   UNL     1      -7.240   0.345  -0.028  0.00  0.00    +0.000 N 
BRANCH  17  18
ATOM     18  C   UNL     1      -8.146  -0.124  -1.112  0.00  0.00    +0.000 C 
ATOM     19  C   UNL     1      -8.734  -1.505  -0.852  0.00  0.00    +0.000 C 
ENDBRANCH  17  18
BRANCH  17  20
ATOM     20  C   UNL     1      -7.157   1.833  -0.041  0.00  0.00    +0.000 C 
BRANCH  20  21
ATOM     21  C   UNL     1      -8.412   2.451   0.590  0.00  0.00    +0.000 C 
BRANCH  21  23
ATOM     22  C   UNL     1      -9.352   3.061   2.867  0.00  0.00    +0.000 C 
ATOM     23  C   UNL     1      -8.160   3.143   1.929  0.00  0.00    +0.000 C 
ENDBRANCH  21  23
ENDBRANCH  20  21
ENDBRANCH  17  20
ENDBRANCH   1  17
TORSDOF 8
ENDMDL
