MODEL 1
REMARK VINA RESULT:    -2.851      0.000      0.000
REMARK INTER + INTRA:          -3.503
REMARK INTER:                  -3.351
REMARK INTRA:                  -0.152
REMARK UNBOUND:                -0.152
REMARK  Name = C:\Users\Bellamkonda Sowmya\OneDrive\Desktop\2nd yr notes\ps1\authml\authml\backend\results\ligand_1764663233630.pdb
REMARK  6 active torsions:
REMARK  status: ('A' for Active; 'I' for Inactive)
REMARK    1  A    between atoms: C_1  and  C_2
REMARK    2  A    between atoms: C_2  and  N_3
REMARK    3  A    between atoms: N_3  and  C_4
REMARK    4  A    between atoms: N_3  and  C_6
REMARK    5  A    between atoms: C_4  and  C_5
REMARK    6  A    between atoms: C_6  and  C_7
REMARK                            x       y       z     vdW  Elec       q    Type
REMARK                         _______ _______ _______ _____ _____    ______ ____
ROOT
ATOM      1  N   UNL     1      -4.447  -2.965   2.108  0.00  0.00    +0.000 NA
ENDROOT
BRANCH   1   3
ATOM      2  C   UNL     1      -3.573  -4.882   0.759  0.00  0.00    +0.000 C 
ATOM      3  C   UNL     1      -4.414  -3.610   0.786  0.00  0.00    +0.000 C 
ENDBRANCH   1   3
BRANCH   1   4
ATOM      4  C   UNL     1      -5.802  -2.617   2.571  0.00  0.00    +0.000 C 
ATOM      5  C   UNL     1      -6.061  -1.145   2.888  0.00  0.00    +0.000 C 
ENDBRANCH   1   4
BRANCH   1   6
ATOM      6  C   UNL     1      -3.712  -3.728   3.130  0.00  0.00    +0.000 C 
ATOM      7  C   UNL     1      -2.632  -2.903   3.828  0.00  0.00    +0.000 C 
ENDBRANCH   1   6
TORSDOF 3
ENDMDL
