MODEL 1
REMARK VINA RESULT:    -2.936      0.000      0.000
REMARK INTER + INTRA:          -3.608
REMARK INTER:                  -3.451
REMARK INTRA:                  -0.157
REMARK UNBOUND:                -0.157
REMARK  Name = results/4f0912eb-9831-4dc6-8fbb-b4087e04a7f1_ligand.pdb
REMARK  6 active torsions:
REMARK  status: ('A' for Active; 'I' for Inactive)
REMARK    1  A    between atoms: C1_1  and  C2_2
REMARK    2  A    between atoms: C2_2  and  N1_3
REMARK    3  A    between atoms: N1_3  and  C3_4
REMARK    4  A    between atoms: N1_3  and  C5_6
REMARK    5  A    between atoms: C3_4  and  C4_5
REMARK    6  A    between atoms: C5_6  and  C6_7
REMARK                            x       y       z     vdW  Elec       q    Type
REMARK                         _______ _______ _______ _____ _____    ______ ____
ROOT
ATOM      1  N1  UNL     1      -4.491  -3.235   2.171  0.00  0.00    +0.000 NA
ENDROOT
BRANCH   1   3
ATOM      2  C1  UNL     1      -3.513  -5.094   0.767  0.00  0.00    +0.000 C 
ATOM      3  C2  UNL     1      -4.125  -3.685   0.808  0.00  0.00    +0.000 C 
ENDBRANCH   1   3
BRANCH   1   4
ATOM      4  C3  UNL     1      -4.557  -1.759   2.295  0.00  0.00    +0.000 C 
ATOM      5  C4  UNL     1      -5.917  -1.356   2.849  0.00  0.00    +0.000 C 
ENDBRANCH   1   4
BRANCH   1   6
ATOM      6  C5  UNL     1      -3.676  -3.880   3.223  0.00  0.00    +0.000 C 
ATOM      7  C6  UNL     1      -2.620  -2.917   3.759  0.00  0.00    +0.000 C 
ENDBRANCH   1   6
TORSDOF 3
ENDMDL
MODEL 2
REMARK VINA RESULT:    -2.936      0.156      3.140
REMARK INTER + INTRA:          -3.608
REMARK INTER:                  -3.448
REMARK INTRA:                  -0.160
REMARK UNBOUND:                -0.157
REMARK  Name = results/4f0912eb-9831-4dc6-8fbb-b4087e04a7f1_ligand.pdb
REMARK  6 active torsions:
REMARK  status: ('A' for Active; 'I' for Inactive)
REMARK    1  A    between atoms: C1_1  and  C2_2
REMARK    2  A    between atoms: C2_2  and  N1_3
REMARK    3  A    between atoms: N1_3  and  C3_4
REMARK    4  A    between atoms: N1_3  and  C5_6
REMARK    5  A    between atoms: C3_4  and  C4_5
REMARK    6  A    between atoms: C5_6  and  C6_7
REMARK                            x       y       z     vdW  Elec       q    Type
REMARK                         _______ _______ _______ _____ _____    ______ ____
ROOT
ATOM      1  N1  UNL     1      -4.480  -3.219   2.162  0.00  0.00    +0.000 NA
ENDROOT
BRANCH   1   3
ATOM      2  C1  UNL     1      -2.594  -2.946   3.820  0.00  0.00    +0.000 C 
ATOM      3  C2  UNL     1      -3.520  -3.906   3.057  0.00  0.00    +0.000 C 
ENDBRANCH   1   3
BRANCH   1   4
ATOM      4  C3  UNL     1      -4.306  -3.587   0.736  0.00  0.00    +0.000 C 
ATOM      5  C4  UNL     1      -3.625  -4.945   0.641  0.00  0.00    +0.000 C 
ENDBRANCH   1   4
BRANCH   1   6
ATOM      6  C5  UNL     1      -4.533  -1.760   2.393  0.00  0.00    +0.000 C 
ATOM      7  C6  UNL     1      -5.908  -1.340   2.907  0.00  0.00    +0.000 C 
ENDBRANCH   1   6
TORSDOF 3
ENDMDL
MODEL 3
REMARK VINA RESULT:    -2.851      0.620      2.928
REMARK INTER + INTRA:          -3.508
REMARK INTER:                  -3.347
REMARK INTRA:                  -0.161
REMARK UNBOUND:                -0.157
REMARK  Name = results/4f0912eb-9831-4dc6-8fbb-b4087e04a7f1_ligand.pdb
REMARK  6 active torsions:
REMARK  status: ('A' for Active; 'I' for Inactive)
REMARK    1  A    between atoms: C1_1  and  C2_2
REMARK    2  A    between atoms: C2_2  and  N1_3
REMARK    3  A    between atoms: N1_3  and  C3_4
REMARK    4  A    between atoms: N1_3  and  C5_6
REMARK    5  A    between atoms: C3_4  and  C4_5
REMARK    6  A    between atoms: C5_6  and  C6_7
REMARK                            x       y       z     vdW  Elec       q    Type
REMARK                         _______ _______ _______ _____ _____    ______ ____
ROOT
ATOM      1  N1  UNL     1      -4.230  -3.113   2.081  0.00  0.00    +0.000 NA
ENDROOT
BRANCH   1   3
ATOM      2  C1  UNL     1      -5.863  -1.340   2.836  0.00  0.00    +0.000 C 
ATOM      3  C2  UNL     1      -5.653  -2.764   2.298  0.00  0.00    +0.000 C 
ENDBRANCH   1   3
BRANCH   1   4
ATOM      4  C3  UNL     1      -4.009  -3.890   0.837  0.00  0.00    +0.000 C 
ATOM      5  C4  UNL     1      -3.675  -5.333   1.191  0.00  0.00    +0.000 C 
ENDBRANCH   1   4
BRANCH   1   6
ATOM      6  C5  UNL     1      -3.601  -3.719   3.274  0.00  0.00    +0.000 C 
ATOM      7  C6  UNL     1      -2.470  -2.840   3.799  0.00  0.00    +0.000 C 
ENDBRANCH   1   6
TORSDOF 3
ENDMDL
MODEL 4
REMARK VINA RESULT:    -2.830      0.265      3.295
REMARK INTER + INTRA:          -3.483
REMARK INTER:                  -3.325
REMARK INTRA:                  -0.159
REMARK UNBOUND:                -0.157
REMARK  Name = results/4f0912eb-9831-4dc6-8fbb-b4087e04a7f1_ligand.pdb
REMARK  6 active torsions:
REMARK  status: ('A' for Active; 'I' for Inactive)
REMARK    1  A    between atoms: C1_1  and  C2_2
REMARK    2  A    between atoms: C2_2  and  N1_3
REMARK    3  A    between atoms: N1_3  and  C3_4
REMARK    4  A    between atoms: N1_3  and  C5_6
REMARK    5  A    between atoms: C3_4  and  C4_5
REMARK    6  A    between atoms: C5_6  and  C6_7
REMARK                            x       y       z     vdW  Elec       q    Type
REMARK                         _______ _______ _______ _____ _____    ______ ____
ROOT
ATOM      1  N1  UNL     1      -4.541  -3.204   2.156  0.00  0.00    +0.000 NA
ENDROOT
BRANCH   1   3
ATOM      2  C1  UNL     1      -5.880  -1.215   2.952  0.00  0.00    +0.000 C 
ATOM      3  C2  UNL     1      -4.525  -1.757   2.473  0.00  0.00    +0.000 C 
ENDBRANCH   1   3
BRANCH   1   4
ATOM      4  C3  UNL     1      -3.643  -3.998   3.029  0.00  0.00    +0.000 C 
ATOM      5  C4  UNL     1      -2.628  -3.074   3.688  0.00  0.00    +0.000 C 
ENDBRANCH   1   4
BRANCH   1   6
ATOM      6  C5  UNL     1      -4.355  -3.475   0.715  0.00  0.00    +0.000 C 
ATOM      7  C6  UNL     1      -3.857  -4.900   0.489  0.00  0.00    +0.000 C 
ENDBRANCH   1   6
TORSDOF 3
ENDMDL
MODEL 5
REMARK VINA RESULT:    -2.781      0.687      2.533
REMARK INTER + INTRA:          -3.425
REMARK INTER:                  -3.274
REMARK INTRA:                  -0.151
REMARK UNBOUND:                -0.157
REMARK  Name = results/4f0912eb-9831-4dc6-8fbb-b4087e04a7f1_ligand.pdb
REMARK  6 active torsions:
REMARK  status: ('A' for Active; 'I' for Inactive)
REMARK    1  A    between atoms: C1_1  and  C2_2
REMARK    2  A    between atoms: C2_2  and  N1_3
REMARK    3  A    between atoms: N1_3  and  C3_4
REMARK    4  A    between atoms: N1_3  and  C5_6
REMARK    5  A    between atoms: C3_4  and  C4_5
REMARK    6  A    between atoms: C5_6  and  C6_7
REMARK                            x       y       z     vdW  Elec       q    Type
REMARK                         _______ _______ _______ _____ _____    ______ ____
ROOT
ATOM      1  N1  UNL     1      -4.404  -2.884   2.034  0.00  0.00    +0.000 NA
ENDROOT
BRANCH   1   3
ATOM      2  C1  UNL     1      -2.586  -2.900   3.788  0.00  0.00    +0.000 C 
ATOM      3  C2  UNL     1      -3.537  -3.717   2.900  0.00  0.00    +0.000 C 
ENDBRANCH   1   3
BRANCH   1   4
ATOM      4  C3  UNL     1      -5.737  -2.625   2.629  0.00  0.00    +0.000 C 
ATOM      5  C4  UNL     1      -6.106  -1.160   2.432  0.00  0.00    +0.000 C 
ENDBRANCH   1   4
BRANCH   1   6
ATOM      6  C5  UNL     1      -4.464  -3.378   0.642  0.00  0.00    +0.000 C 
ATOM      7  C6  UNL     1      -3.787  -4.739   0.518  0.00  0.00    +0.000 C 
ENDBRANCH   1   6
TORSDOF 3
ENDMDL
MODEL 6
REMARK VINA RESULT:    -2.754      1.300      2.866
REMARK INTER + INTRA:          -3.394
REMARK INTER:                  -3.183
REMARK INTRA:                  -0.210
REMARK UNBOUND:                -0.157
REMARK  Name = results/4f0912eb-9831-4dc6-8fbb-b4087e04a7f1_ligand.pdb
REMARK  6 active torsions:
REMARK  status: ('A' for Active; 'I' for Inactive)
REMARK    1  A    between atoms: C1_1  and  C2_2
REMARK    2  A    between atoms: C2_2  and  N1_3
REMARK    3  A    between atoms: N1_3  and  C3_4
REMARK    4  A    between atoms: N1_3  and  C5_6
REMARK    5  A    between atoms: C3_4  and  C4_5
REMARK    6  A    between atoms: C5_6  and  C6_7
REMARK                            x       y       z     vdW  Elec       q    Type
REMARK                         _______ _______ _______ _____ _____    ______ ____
ROOT
ATOM      1  N1  UNL     1      -4.590  -3.109   2.090  0.00  0.00    +0.000 NA
ENDROOT
BRANCH   1   3
ATOM      2  C1  UNL     1      -5.891  -4.969   3.200  0.00  0.00    +0.000 C 
ATOM      3  C2  UNL     1      -5.915  -3.747   2.268  0.00  0.00    +0.000 C 
ENDBRANCH   1   3
BRANCH   1   4
ATOM      4  C3  UNL     1      -3.490  -3.875   2.723  0.00  0.00    +0.000 C 
ATOM      5  C4  UNL     1      -2.731  -2.973   3.688  0.00  0.00    +0.000 C 
ENDBRANCH   1   4
BRANCH   1   6
ATOM      6  C5  UNL     1      -4.593  -1.675   2.449  0.00  0.00    +0.000 C 
ATOM      7  C6  UNL     1      -5.986  -1.226   2.883  0.00  0.00    +0.000 C 
ENDBRANCH   1   6
TORSDOF 3
ENDMDL
MODEL 7
REMARK VINA RESULT:    -2.738      1.228      2.617
REMARK INTER + INTRA:          -3.376
REMARK INTER:                  -3.297
REMARK INTRA:                  -0.079
REMARK UNBOUND:                -0.157
REMARK  Name = results/4f0912eb-9831-4dc6-8fbb-b4087e04a7f1_ligand.pdb
REMARK  6 active torsions:
REMARK  status: ('A' for Active; 'I' for Inactive)
REMARK    1  A    between atoms: C1_1  and  C2_2
REMARK    2  A    between atoms: C2_2  and  N1_3
REMARK    3  A    between atoms: N1_3  and  C3_4
REMARK    4  A    between atoms: N1_3  and  C5_6
REMARK    5  A    between atoms: C3_4  and  C4_5
REMARK    6  A    between atoms: C5_6  and  C6_7
REMARK                            x       y       z     vdW  Elec       q    Type
REMARK                         _______ _______ _______ _____ _____    ______ ____
ROOT
ATOM      1  N1  UNL     1      -3.569  -4.224   1.779  0.00  0.00    +0.000 NA
ENDROOT
BRANCH   1   3
ATOM      2  C1  UNL     1      -2.991  -6.434   0.699  0.00  0.00    +0.000 C 
ATOM      3  C2  UNL     1      -3.804  -5.687   1.768  0.00  0.00    +0.000 C 
ENDBRANCH   1   3
BRANCH   1   4
ATOM      4  C3  UNL     1      -3.894  -3.596   3.082  0.00  0.00    +0.000 C 
ATOM      5  C4  UNL     1      -2.631  -2.998   3.687  0.00  0.00    +0.000 C 
ENDBRANCH   1   4
BRANCH   1   6
ATOM      6  C5  UNL     1      -4.185  -3.538   0.623  0.00  0.00    +0.000 C 
ATOM      7  C6  UNL     1      -4.962  -2.304   1.074  0.00  0.00    +0.000 C 
ENDBRANCH   1   6
TORSDOF 3
ENDMDL
MODEL 8
REMARK VINA RESULT:    -2.647      1.638      3.690
REMARK INTER + INTRA:          -3.269
REMARK INTER:                  -3.136
REMARK INTRA:                  -0.133
REMARK UNBOUND:                -0.157
REMARK  Name = results/4f0912eb-9831-4dc6-8fbb-b4087e04a7f1_ligand.pdb
REMARK  6 active torsions:
REMARK  status: ('A' for Active; 'I' for Inactive)
REMARK    1  A    between atoms: C1_1  and  C2_2
REMARK    2  A    between atoms: C2_2  and  N1_3
REMARK    3  A    between atoms: N1_3  and  C3_4
REMARK    4  A    between atoms: N1_3  and  C5_6
REMARK    5  A    between atoms: C3_4  and  C4_5
REMARK    6  A    between atoms: C5_6  and  C6_7
REMARK                            x       y       z     vdW  Elec       q    Type
REMARK                         _______ _______ _______ _____ _____    ______ ____
ROOT
ATOM      1  N1  UNL     1      -4.005  -4.849   2.508  0.00  0.00    +0.000 NA
ENDROOT
BRANCH   1   3
ATOM      2  C1  UNL     1      -2.710  -3.060   3.733  0.00  0.00    +0.000 C 
ATOM      3  C2  UNL     1      -3.570  -3.433   2.516  0.00  0.00    +0.000 C 
ENDBRANCH   1   3
BRANCH   1   4
ATOM      4  C3  UNL     1      -3.639  -5.559   1.259  0.00  0.00    +0.000 C 
ATOM      5  C4  UNL     1      -3.516  -7.051   1.540  0.00  0.00    +0.000 C 
ENDBRANCH   1   4
BRANCH   1   6
ATOM      6  C5  UNL     1      -5.426  -5.012   2.884  0.00  0.00    +0.000 C 
ATOM      7  C6  UNL     1      -6.205  -3.723   2.641  0.00  0.00    +0.000 C 
ENDBRANCH   1   6
TORSDOF 3
ENDMDL
MODEL 9
REMARK VINA RESULT:    -2.458     14.163     15.047
REMARK INTER + INTRA:          -3.046
REMARK INTER:                  -2.888
REMARK INTRA:                  -0.157
REMARK UNBOUND:                -0.157
REMARK  Name = results/4f0912eb-9831-4dc6-8fbb-b4087e04a7f1_ligand.pdb
REMARK  6 active torsions:
REMARK  status: ('A' for Active; 'I' for Inactive)
REMARK    1  A    between atoms: C1_1  and  C2_2
REMARK    2  A    between atoms: C2_2  and  N1_3
REMARK    3  A    between atoms: N1_3  and  C3_4
REMARK    4  A    between atoms: N1_3  and  C5_6
REMARK    5  A    between atoms: C3_4  and  C4_5
REMARK    6  A    between atoms: C5_6  and  C6_7
REMARK                            x       y       z     vdW  Elec       q    Type
REMARK                         _______ _______ _______ _____ _____    ______ ____
ROOT
ATOM      1  N1  UNL     1      10.106  -4.336  -1.842  0.00  0.00    +0.000 NA
ENDROOT
BRANCH   1   3
ATOM      2  C1  UNL     1       8.866  -6.057  -3.214  0.00  0.00    +0.000 C 
ATOM      3  C2  UNL     1       8.833  -5.068  -2.038  0.00  0.00    +0.000 C 
ENDBRANCH   1   3
BRANCH   1   4
ATOM      4  C3  UNL     1      10.032  -3.329  -0.756  0.00  0.00    +0.000 C 
ATOM      5  C4  UNL     1       9.895  -1.938  -1.361  0.00  0.00    +0.000 C 
ENDBRANCH   1   4
BRANCH   1   6
ATOM      6  C5  UNL     1      10.659  -3.802  -3.105  0.00  0.00    +0.000 C 
ATOM      7  C6  UNL     1      12.126  -4.190  -3.263  0.00  0.00    +0.000 C 
ENDBRANCH   1   6
TORSDOF 3
ENDMDL
