MODEL 1
REMARK VINA RESULT:    -4.326      0.000      0.000
REMARK INTER + INTRA:         -10.980
REMARK INTER:                  -8.120
REMARK INTRA:                  -2.860
REMARK UNBOUND:                -2.860
REMARK  Name = C:\DDRIVE\PROJECT\authml\backend\results\ligand_1764478874273.pdb
REMARK  17 active torsions:
REMARK  status: ('A' for Active; 'I' for Inactive)
REMARK    1  A    between atoms: C_1  and  C_2
REMARK    2  A    between atoms: C_2  and  C_3
REMARK    3  A    between atoms: C_3  and  C_4
REMARK    4  A    between atoms: C_4  and  C_5
REMARK    5  A    between atoms: C_5  and  C_6
REMARK    6  A    between atoms: C_6  and  C_7
REMARK    7  A    between atoms: C_7  and  C_8
REMARK    8  A    between atoms: C_8  and  C_9
REMARK    9  A    between atoms: C_9  and  C_10
REMARK   10  A    between atoms: C_10  and  C_11
REMARK   11  A    between atoms: C_11  and  C_12
REMARK   12  A    between atoms: C_12  and  C_13
REMARK   13  A    between atoms: C_13  and  C_14
REMARK   14  A    between atoms: C_14  and  C_15
REMARK   15  A    between atoms: C_15  and  C_16
REMARK   16  A    between atoms: C_19  and  O_20
REMARK   17  A    between atoms: C_22  and  O_23
REMARK                            x       y       z     vdW  Elec       q    Type
REMARK                         _______ _______ _______ _____ _____    ______ ____
ROOT
ATOM      1  C   UNL     1      -5.641   0.504  -1.663  0.00  0.00    +0.000 C 
ENDROOT
BRANCH   1   2
ATOM      2  C   UNL     1      -4.850  -0.306  -0.631  0.00  0.00    +0.000 C 
BRANCH   2   3
ATOM      3  C   UNL     1      -4.954  -1.810  -0.866  0.00  0.00    +0.000 C 
BRANCH   3   4
ATOM      4  C   UNL     1      -4.625  -2.591   0.410  0.00  0.00    +0.000 C 
BRANCH   4   5
ATOM      5  C   UNL     1      -4.657  -1.692   1.649  0.00  0.00    +0.000 C 
BRANCH   5   6
ATOM      6  C   UNL     1      -4.012  -2.371   2.857  0.00  0.00    +0.000 C 
BRANCH   6   7
ATOM      7  C   UNL     1      -3.772  -3.864   2.605  0.00  0.00    +0.000 C 
BRANCH   7   8
ATOM      8  C   UNL     1      -4.886  -4.727   3.210  0.00  0.00    +0.000 C 
BRANCH   8   9
ATOM      9  C   UNL     1      -5.373  -5.798   2.226  0.00  0.00    +0.000 C 
BRANCH   9  10
ATOM     10  C   UNL     1      -6.852  -5.607   1.868  0.00  0.00    +0.000 C 
BRANCH  10  11
ATOM     11  C   UNL     1      -7.484  -4.455   2.660  0.00  0.00    +0.000 C 
BRANCH  11  13
ATOM     12  C   UNL     1      -8.051  -3.429   0.419  0.00  0.00    +0.000 C 
ATOM     13  C   UNL     1      -8.534  -3.701   1.838  0.00  0.00    +0.000 C 
ENDBRANCH  11  13
ENDBRANCH  10  11
ENDBRANCH   9  10
ENDBRANCH   8   9
ENDBRANCH   7   8
ENDBRANCH   6   7
ENDBRANCH   5   6
ENDBRANCH   4   5
ENDBRANCH   3   4
ENDBRANCH   2   3
ENDBRANCH   1   2
BRANCH   1  14
ATOM     14  C   UNL     1      -7.029   0.902  -1.148  0.00  0.00    +0.000 C 
BRANCH  14  15
ATOM     15  C   UNL     1      -6.946   1.858   0.048  0.00  0.00    +0.000 C 
BRANCH  15  16
ATOM     16  C   UNL     1      -7.780   1.396   1.209  0.00  0.00    +0.000 A 
ATOM     17  C   UNL     1      -7.737   0.050   1.526  0.00  0.00    +0.000 A 
ATOM     18  C   UNL     1      -7.540  -0.214   2.869  0.00  0.00    +0.000 A 
ATOM     19  C   UNL     1      -8.172   0.600   3.784  0.00  0.00    +0.000 A 
ATOM     20  C   UNL     1      -8.777   1.774   3.384  0.00  0.00    +0.000 A 
ATOM     21  C   UNL     1      -8.351   2.256   2.179  0.00  0.00    +0.000 A 
BRANCH  19  22
ATOM     22  O   UNL     1      -7.937   0.464   5.118  0.00  0.00    +0.000 OA
ATOM     23  H   UNL     1      -8.813   0.510   5.550  0.00  0.00    +0.000 HD
ENDBRANCH  19  22
BRANCH  21  24
ATOM     24  O   UNL     1      -8.300   3.627   2.023  0.00  0.00    +0.000 OA
ATOM     25  H   UNL     1      -9.190   3.912   1.806  0.00  0.00    +0.000 HD
ENDBRANCH  21  24
ENDBRANCH  15  16
ENDBRANCH  14  15
ENDBRANCH   1  14
TORSDOF 16
ENDMDL
MODEL 2
REMARK VINA RESULT:    -4.290      2.377      5.144
REMARK INTER + INTRA:         -10.911
REMARK INTER:                  -8.818
REMARK INTRA:                  -2.093
REMARK UNBOUND:                -2.860
REMARK  Name = C:\DDRIVE\PROJECT\authml\backend\results\ligand_1764478874273.pdb
REMARK  17 active torsions:
REMARK  status: ('A' for Active; 'I' for Inactive)
REMARK    1  A    between atoms: C_1  and  C_2
REMARK    2  A    between atoms: C_2  and  C_3
REMARK    3  A    between atoms: C_3  and  C_4
REMARK    4  A    between atoms: C_4  and  C_5
REMARK    5  A    between atoms: C_5  and  C_6
REMARK    6  A    between atoms: C_6  and  C_7
REMARK    7  A    between atoms: C_7  and  C_8
REMARK    8  A    between atoms: C_8  and  C_9
REMARK    9  A    between atoms: C_9  and  C_10
REMARK   10  A    between atoms: C_10  and  C_11
REMARK   11  A    between atoms: C_11  and  C_12
REMARK   12  A    between atoms: C_12  and  C_13
REMARK   13  A    between atoms: C_13  and  C_14
REMARK   14  A    between atoms: C_14  and  C_15
REMARK   15  A    between atoms: C_15  and  C_16
REMARK   16  A    between atoms: C_19  and  O_20
REMARK   17  A    between atoms: C_22  and  O_23
REMARK                            x       y       z     vdW  Elec       q    Type
REMARK                         _______ _______ _______ _____ _____    ______ ____
ROOT
ATOM      1  C   UNL     1      -9.375   1.709   3.466  0.00  0.00    +0.000 C 
ENDROOT
BRANCH   1   2
ATOM      2  C   UNL     1      -8.208   1.074   2.704  0.00  0.00    +0.000 C 
BRANCH   2   3
ATOM      3  C   UNL     1      -8.360   1.204   1.191  0.00  0.00    +0.000 C 
BRANCH   3   4
ATOM      4  C   UNL     1      -7.299   2.143   0.609  0.00  0.00    +0.000 C 
BRANCH   4   5
ATOM      5  C   UNL     1      -6.828   1.678  -0.772  0.00  0.00    +0.000 C 
BRANCH   5   6
ATOM      6  C   UNL     1      -6.562   0.172  -0.801  0.00  0.00    +0.000 C 
BRANCH   6   7
ATOM      7  C   UNL     1      -5.086  -0.146  -0.535  0.00  0.00    +0.000 C 
BRANCH   7   8
ATOM      8  C   UNL     1      -4.925  -1.375   0.367  0.00  0.00    +0.000 C 
BRANCH   8   9
ATOM      9  C   UNL     1      -5.846  -1.305   1.592  0.00  0.00    +0.000 C 
BRANCH   9  10
ATOM     10  C   UNL     1      -5.162  -1.858   2.848  0.00  0.00    +0.000 C 
BRANCH  10  11
ATOM     11  C   UNL     1      -4.870  -3.359   2.722  0.00  0.00    +0.000 C 
BRANCH  11  13
ATOM     12  C   UNL     1      -2.617  -2.909   3.778  0.00  0.00    +0.000 C 
ATOM     13  C   UNL     1      -3.366  -3.650   2.678  0.00  0.00    +0.000 C 
ENDBRANCH  11  13
ENDBRANCH  10  11
ENDBRANCH   9  10
ENDBRANCH   8   9
ENDBRANCH   7   8
ENDBRANCH   6   7
ENDBRANCH   5   6
ENDBRANCH   4   5
ENDBRANCH   3   4
ENDBRANCH   2   3
ENDBRANCH   1   2
BRANCH   1  14
ATOM     14  C   UNL     1     -10.541   2.076   2.542  0.00  0.00    +0.000 C 
BRANCH  14  15
ATOM     15  C   UNL     1     -11.171   3.422   2.917  0.00  0.00    +0.000 C 
BRANCH  15  16
ATOM     16  C   UNL     1     -10.452   4.584   2.293  0.00  0.00    +0.000 A 
ATOM     17  C   UNL     1      -9.401   5.136   3.003  0.00  0.00    +0.000 A 
ATOM     18  C   UNL     1      -8.251   5.332   2.260  0.00  0.00    +0.000 A 
ATOM     19  C   UNL     1      -8.392   5.765   0.960  0.00  0.00    +0.000 A 
ATOM     20  C   UNL     1      -9.628   5.768   0.347  0.00  0.00    +0.000 A 
ATOM     21  C   UNL     1     -10.558   4.955   0.930  0.00  0.00    +0.000 A 
BRANCH  19  22
ATOM     22  O   UNL     1      -7.310   5.875   0.140  0.00  0.00    +0.000 OA
ATOM     23  H   UNL     1      -7.010   6.802   0.216  0.00  0.00    +0.000 HD
ENDBRANCH  19  22
BRANCH  21  24
ATOM     24  O   UNL     1     -11.476   4.342   0.101  0.00  0.00    +0.000 OA
ATOM     25  H   UNL     1     -10.981   3.975  -0.634  0.00  0.00    +0.000 HD
ENDBRANCH  21  24
ENDBRANCH  15  16
ENDBRANCH  14  15
ENDBRANCH   1  14
TORSDOF 16
ENDMDL
MODEL 3
REMARK VINA RESULT:    -4.147     15.474     17.166
REMARK INTER + INTRA:         -10.644
REMARK INTER:                  -7.316
REMARK INTRA:                  -3.328
REMARK UNBOUND:                -2.860
REMARK  Name = C:\DDRIVE\PROJECT\authml\backend\results\ligand_1764478874273.pdb
REMARK  17 active torsions:
REMARK  status: ('A' for Active; 'I' for Inactive)
REMARK    1  A    between atoms: C_1  and  C_2
REMARK    2  A    between atoms: C_2  and  C_3
REMARK    3  A    between atoms: C_3  and  C_4
REMARK    4  A    between atoms: C_4  and  C_5
REMARK    5  A    between atoms: C_5  and  C_6
REMARK    6  A    between atoms: C_6  and  C_7
REMARK    7  A    between atoms: C_7  and  C_8
REMARK    8  A    between atoms: C_8  and  C_9
REMARK    9  A    between atoms: C_9  and  C_10
REMARK   10  A    between atoms: C_10  and  C_11
REMARK   11  A    between atoms: C_11  and  C_12
REMARK   12  A    between atoms: C_12  and  C_13
REMARK   13  A    between atoms: C_13  and  C_14
REMARK   14  A    between atoms: C_14  and  C_15
REMARK   15  A    between atoms: C_15  and  C_16
REMARK   16  A    between atoms: C_19  and  O_20
REMARK   17  A    between atoms: C_22  and  O_23
REMARK                            x       y       z     vdW  Elec       q    Type
REMARK                         _______ _______ _______ _____ _____    ______ ____
ROOT
ATOM      1  C   UNL     1       8.943  -5.507   2.309  0.00  0.00    +0.000 C 
ENDROOT
BRANCH   1   2
ATOM      2  C   UNL     1       8.086  -5.414   1.043  0.00  0.00    +0.000 C 
BRANCH   2   3
ATOM      3  C   UNL     1       7.648  -6.783   0.533  0.00  0.00    +0.000 C 
BRANCH   3   4
ATOM      4  C   UNL     1       8.574  -7.887   1.051  0.00  0.00    +0.000 C 
BRANCH   4   5
ATOM      5  C   UNL     1       9.005  -8.837  -0.070  0.00  0.00    +0.000 C 
BRANCH   5   6
ATOM      6  C   UNL     1      10.514  -9.080  -0.057  0.00  0.00    +0.000 C 
BRANCH   6   7
ATOM      7  C   UNL     1      11.268  -7.920   0.607  0.00  0.00    +0.000 C 
BRANCH   7   8
ATOM      8  C   UNL     1      12.023  -7.072  -0.424  0.00  0.00    +0.000 C 
BRANCH   8   9
ATOM      9  C   UNL     1      11.179  -5.889  -0.913  0.00  0.00    +0.000 C 
BRANCH   9  10
ATOM     10  C   UNL     1      10.965  -5.935  -2.431  0.00  0.00    +0.000 C 
BRANCH  10  11
ATOM     11  C   UNL     1       9.595  -5.368  -2.830  0.00  0.00    +0.000 C 
BRANCH  11  13
ATOM     12  C   UNL     1       9.387  -7.782  -3.554  0.00  0.00    +0.000 C 
ATOM     13  C   UNL     1       8.664  -6.453  -3.381  0.00  0.00    +0.000 C 
ENDBRANCH  11  13
ENDBRANCH  10  11
ENDBRANCH   9  10
ENDBRANCH   8   9
ENDBRANCH   7   8
ENDBRANCH   6   7
ENDBRANCH   5   6
ENDBRANCH   4   5
ENDBRANCH   3   4
ENDBRANCH   2   3
ENDBRANCH   1   2
BRANCH   1  14
ATOM     14  C   UNL     1      10.022  -4.420   2.360  0.00  0.00    +0.000 C 
BRANCH  14  15
ATOM     15  C   UNL     1       9.424  -3.025   2.573  0.00  0.00    +0.000 C 
BRANCH  15  16
ATOM     16  C   UNL     1       9.820  -2.060   1.491  0.00  0.00    +0.000 A 
ATOM     17  C   UNL     1      10.549  -2.563   0.429  0.00  0.00    +0.000 A 
ATOM     18  C   UNL     1      10.073  -2.190  -0.816  0.00  0.00    +0.000 A 
ATOM     19  C   UNL     1       9.599  -0.905  -0.965  0.00  0.00    +0.000 A 
ATOM     20  C   UNL     1       9.380  -0.102   0.135  0.00  0.00    +0.000 A 
ATOM     21  C   UNL     1       9.254  -0.773   1.318  0.00  0.00    +0.000 A 
BRANCH  19  22
ATOM     22  O   UNL     1       9.020  -0.506  -2.131  0.00  0.00    +0.000 OA
ATOM     23  H   UNL     1       8.873   0.456  -2.041  0.00  0.00    +0.000 HD
ENDBRANCH  19  22
BRANCH  21  24
ATOM     24  O   UNL     1       8.386  -0.252   2.256  0.00  0.00    +0.000 OA
ATOM     25  H   UNL     1       7.530  -0.651   2.090  0.00  0.00    +0.000 HD
ENDBRANCH  21  24
ENDBRANCH  15  16
ENDBRANCH  14  15
ENDBRANCH   1  14
TORSDOF 16
ENDMDL
MODEL 4
REMARK VINA RESULT:    -4.128     15.195     16.897
REMARK INTER + INTRA:         -10.609
REMARK INTER:                  -7.740
REMARK INTRA:                  -2.869
REMARK UNBOUND:                -2.860
REMARK  Name = C:\DDRIVE\PROJECT\authml\backend\results\ligand_1764478874273.pdb
REMARK  17 active torsions:
REMARK  status: ('A' for Active; 'I' for Inactive)
REMARK    1  A    between atoms: C_1  and  C_2
REMARK    2  A    between atoms: C_2  and  C_3
REMARK    3  A    between atoms: C_3  and  C_4
REMARK    4  A    between atoms: C_4  and  C_5
REMARK    5  A    between atoms: C_5  and  C_6
REMARK    6  A    between atoms: C_6  and  C_7
REMARK    7  A    between atoms: C_7  and  C_8
REMARK    8  A    between atoms: C_8  and  C_9
REMARK    9  A    between atoms: C_9  and  C_10
REMARK   10  A    between atoms: C_10  and  C_11
REMARK   11  A    between atoms: C_11  and  C_12
REMARK   12  A    between atoms: C_12  and  C_13
REMARK   13  A    between atoms: C_13  and  C_14
REMARK   14  A    between atoms: C_14  and  C_15
REMARK   15  A    between atoms: C_15  and  C_16
REMARK   16  A    between atoms: C_19  and  O_20
REMARK   17  A    between atoms: C_22  and  O_23
REMARK                            x       y       z     vdW  Elec       q    Type
REMARK                         _______ _______ _______ _____ _____    ______ ____
ROOT
ATOM      1  C   UNL     1       8.884  -5.218  -2.447  0.00  0.00    +0.000 C 
ENDROOT
BRANCH   1   2
ATOM      2  C   UNL     1       8.774  -6.483  -3.304  0.00  0.00    +0.000 C 
BRANCH   2   3
ATOM      3  C   UNL     1       9.933  -7.448  -3.072  0.00  0.00    +0.000 C 
BRANCH   3   4
ATOM      4  C   UNL     1       9.613  -8.433  -1.944  0.00  0.00    +0.000 C 
BRANCH   4   5
ATOM      5  C   UNL     1      10.617  -8.322  -0.793  0.00  0.00    +0.000 C 
BRANCH   5   6
ATOM      6  C   UNL     1      10.096  -7.421   0.327  0.00  0.00    +0.000 C 
BRANCH   6   7
ATOM      7  C   UNL     1       8.941  -8.081   1.091  0.00  0.00    +0.000 C 
BRANCH   7   8
ATOM      8  C   UNL     1       7.616  -7.344   0.862  0.00  0.00    +0.000 C 
BRANCH   8   9
ATOM      9  C   UNL     1       7.776  -5.827   1.019  0.00  0.00    +0.000 C 
BRANCH   9  10
ATOM     10  C   UNL     1       7.413  -5.363   2.435  0.00  0.00    +0.000 C 
BRANCH  10  11
ATOM     11  C   UNL     1       8.464  -4.399   3.004  0.00  0.00    +0.000 C 
BRANCH  11  13
ATOM     12  C   UNL     1       9.797  -6.112   4.301  0.00  0.00    +0.000 C 
ATOM     13  C   UNL     1       9.826  -5.076   3.184  0.00  0.00    +0.000 C 
ENDBRANCH  11  13
ENDBRANCH  10  11
ENDBRANCH   9  10
ENDBRANCH   8   9
ENDBRANCH   7   8
ENDBRANCH   6   7
ENDBRANCH   5   6
ENDBRANCH   4   5
ENDBRANCH   3   4
ENDBRANCH   2   3
ENDBRANCH   1   2
BRANCH   1  14
ATOM     14  C   UNL     1      10.326  -4.710  -2.346  0.00  0.00    +0.000 C 
BRANCH  14  15
ATOM     15  C   UNL     1      10.403  -3.181  -2.414  0.00  0.00    +0.000 C 
BRANCH  15  16
ATOM     16  C   UNL     1       9.933  -2.526  -1.146  0.00  0.00    +0.000 A 
ATOM     17  C   UNL     1      10.334  -3.095   0.049  0.00  0.00    +0.000 A 
ATOM     18  C   UNL     1      10.840  -2.194   0.968  0.00  0.00    +0.000 A 
ATOM     19  C   UNL     1      10.231  -0.962   1.063  0.00  0.00    +0.000 A 
ATOM     20  C   UNL     1       9.315  -0.553   0.115  0.00  0.00    +0.000 A 
ATOM     21  C   UNL     1       9.382  -1.222  -1.073  0.00  0.00    +0.000 A 
BRANCH  19  22
ATOM     22  O   UNL     1      10.742   0.010   1.869  0.00  0.00    +0.000 OA
ATOM     23  H   UNL     1      10.081   0.147   2.575  0.00  0.00    +0.000 HD
ENDBRANCH  19  22
BRANCH  21  24
ATOM     24  O   UNL     1       9.096  -0.512  -2.222  0.00  0.00    +0.000 OA
ATOM     25  H   UNL     1       8.313   0.009  -2.034  0.00  0.00    +0.000 HD
ENDBRANCH  21  24
ENDBRANCH  15  16
ENDBRANCH  14  15
ENDBRANCH   1  14
TORSDOF 16
ENDMDL
MODEL 5
REMARK VINA RESULT:    -4.126     15.401     17.892
REMARK INTER + INTRA:         -10.604
REMARK INTER:                  -7.216
REMARK INTRA:                  -3.388
REMARK UNBOUND:                -2.860
REMARK  Name = C:\DDRIVE\PROJECT\authml\backend\results\ligand_1764478874273.pdb
REMARK  17 active torsions:
REMARK  status: ('A' for Active; 'I' for Inactive)
REMARK    1  A    between atoms: C_1  and  C_2
REMARK    2  A    between atoms: C_2  and  C_3
REMARK    3  A    between atoms: C_3  and  C_4
REMARK    4  A    between atoms: C_4  and  C_5
REMARK    5  A    between atoms: C_5  and  C_6
REMARK    6  A    between atoms: C_6  and  C_7
REMARK    7  A    between atoms: C_7  and  C_8
REMARK    8  A    between atoms: C_8  and  C_9
REMARK    9  A    between atoms: C_9  and  C_10
REMARK   10  A    between atoms: C_10  and  C_11
REMARK   11  A    between atoms: C_11  and  C_12
REMARK   12  A    between atoms: C_12  and  C_13
REMARK   13  A    between atoms: C_13  and  C_14
REMARK   14  A    between atoms: C_14  and  C_15
REMARK   15  A    between atoms: C_15  and  C_16
REMARK   16  A    between atoms: C_19  and  O_20
REMARK   17  A    between atoms: C_22  and  O_23
REMARK                            x       y       z     vdW  Elec       q    Type
REMARK                         _______ _______ _______ _____ _____    ______ ____
ROOT
ATOM      1  C   UNL     1      10.123  -7.349  -2.219  0.00  0.00    +0.000 C 
ENDROOT
BRANCH   1   2
ATOM      2  C   UNL     1       9.004  -6.493  -2.820  0.00  0.00    +0.000 C 
BRANCH   2   3
ATOM      3  C   UNL     1       8.541  -5.390  -1.873  0.00  0.00    +0.000 C 
BRANCH   3   4
ATOM      4  C   UNL     1       8.905  -5.720  -0.422  0.00  0.00    +0.000 C 
BRANCH   4   5
ATOM      5  C   UNL     1       7.676  -6.150   0.385  0.00  0.00    +0.000 C 
BRANCH   5   6
ATOM      6  C   UNL     1       7.827  -7.571   0.930  0.00  0.00    +0.000 C 
BRANCH   6   7
ATOM      7  C   UNL     1       9.294  -7.913   1.217  0.00  0.00    +0.000 C 
BRANCH   7   8
ATOM      8  C   UNL     1       9.630  -7.763   2.705  0.00  0.00    +0.000 C 
BRANCH   8   9
ATOM      9  C   UNL     1      10.675  -6.666   2.944  0.00  0.00    +0.000 C 
BRANCH   9  10
ATOM     10  C   UNL     1      10.122  -5.537   3.823  0.00  0.00    +0.000 C 
BRANCH  10  11
ATOM     11  C   UNL     1       9.709  -4.317   2.988  0.00  0.00    +0.000 C 
BRANCH  11  13
ATOM     12  C   UNL     1       7.511  -4.949   4.067  0.00  0.00    +0.000 C 
ATOM     13  C   UNL     1       8.264  -3.893   3.268  0.00  0.00    +0.000 C 
ENDBRANCH  11  13
ENDBRANCH  10  11
ENDBRANCH   9  10
ENDBRANCH   8   9
ENDBRANCH   7   8
ENDBRANCH   6   7
ENDBRANCH   5   6
ENDBRANCH   4   5
ENDBRANCH   3   4
ENDBRANCH   2   3
ENDBRANCH   1   2
BRANCH   1  14
ATOM     14  C   UNL     1      11.496  -7.006  -2.807  0.00  0.00    +0.000 C 
BRANCH  14  15
ATOM     15  C   UNL     1      12.361  -6.211  -1.823  0.00  0.00    +0.000 C 
BRANCH  15  16
ATOM     16  C   UNL     1      12.213  -4.726  -1.999  0.00  0.00    +0.000 A 
ATOM     17  C   UNL     1      12.003  -4.257  -3.284  0.00  0.00    +0.000 A 
ATOM     18  C   UNL     1      10.963  -3.352  -3.398  0.00  0.00    +0.000 A 
ATOM     19  C   UNL     1      10.798  -2.432  -2.386  0.00  0.00    +0.000 A 
ATOM     20  C   UNL     1      11.484  -2.560  -1.196  0.00  0.00    +0.000 A 
ATOM     21  C   UNL     1      11.963  -3.814  -0.944  0.00  0.00    +0.000 A 
BRANCH  19  22
ATOM     22  O   UNL     1       9.732  -1.583  -2.382  0.00  0.00    +0.000 OA
ATOM     23  H   UNL     1       9.862  -0.988  -3.146  0.00  0.00    +0.000 HD
ENDBRANCH  19  22
BRANCH  21  24
ATOM     24  O   UNL     1      11.995  -4.232   0.371  0.00  0.00    +0.000 OA
ATOM     25  H   UNL     1      12.910  -4.180   0.654  0.00  0.00    +0.000 HD
ENDBRANCH  21  24
ENDBRANCH  15  16
ENDBRANCH  14  15
ENDBRANCH   1  14
TORSDOF 16
ENDMDL
MODEL 6
REMARK VINA RESULT:    -3.975     15.442     17.054
REMARK INTER + INTRA:         -10.321
REMARK INTER:                  -7.740
REMARK INTRA:                  -2.581
REMARK UNBOUND:                -2.860
REMARK  Name = C:\DDRIVE\PROJECT\authml\backend\results\ligand_1764478874273.pdb
REMARK  17 active torsions:
REMARK  status: ('A' for Active; 'I' for Inactive)
REMARK    1  A    between atoms: C_1  and  C_2
REMARK    2  A    between atoms: C_2  and  C_3
REMARK    3  A    between atoms: C_3  and  C_4
REMARK    4  A    between atoms: C_4  and  C_5
REMARK    5  A    between atoms: C_5  and  C_6
REMARK    6  A    between atoms: C_6  and  C_7
REMARK    7  A    between atoms: C_7  and  C_8
REMARK    8  A    between atoms: C_8  and  C_9
REMARK    9  A    between atoms: C_9  and  C_10
REMARK   10  A    between atoms: C_10  and  C_11
REMARK   11  A    between atoms: C_11  and  C_12
REMARK   12  A    between atoms: C_12  and  C_13
REMARK   13  A    between atoms: C_13  and  C_14
REMARK   14  A    between atoms: C_14  and  C_15
REMARK   15  A    between atoms: C_15  and  C_16
REMARK   16  A    between atoms: C_19  and  O_20
REMARK   17  A    between atoms: C_22  and  O_23
REMARK                            x       y       z     vdW  Elec       q    Type
REMARK                         _______ _______ _______ _____ _____    ______ ____
ROOT
ATOM      1  C   UNL     1       9.296  -0.215   0.620  0.00  0.00    +0.000 C 
ENDROOT
BRANCH   1   2
ATOM      2  C   UNL     1      10.541  -0.480   1.472  0.00  0.00    +0.000 C 
BRANCH   2   3
ATOM      3  C   UNL     1      10.225  -0.534   2.964  0.00  0.00    +0.000 C 
BRANCH   3   4
ATOM      4  C   UNL     1       8.825  -1.104   3.212  0.00  0.00    +0.000 C 
BRANCH   4   5
ATOM      5  C   UNL     1       8.883  -2.447   3.947  0.00  0.00    +0.000 C 
BRANCH   5   6
ATOM      6  C   UNL     1       8.942  -3.623   2.973  0.00  0.00    +0.000 C 
BRANCH   6   7
ATOM      7  C   UNL     1       7.710  -4.527   3.104  0.00  0.00    +0.000 C 
BRANCH   7   8
ATOM      8  C   UNL     1       7.847  -5.798   2.256  0.00  0.00    +0.000 C 
BRANCH   8   9
ATOM      9  C   UNL     1       9.281  -6.341   2.275  0.00  0.00    +0.000 C 
BRANCH   9  10
ATOM     10  C   UNL     1       9.336  -7.812   1.845  0.00  0.00    +0.000 C 
BRANCH  10  11
ATOM     11  C   UNL     1       8.212  -8.156   0.857  0.00  0.00    +0.000 C 
BRANCH  11  13
ATOM     12  C   UNL     1      10.262  -8.377  -0.607  0.00  0.00    +0.000 C 
ATOM     13  C   UNL     1       8.740  -8.345  -0.569  0.00  0.00    +0.000 C 
ENDBRANCH  11  13
ENDBRANCH  10  11
ENDBRANCH   9  10
ENDBRANCH   8   9
ENDBRANCH   7   8
ENDBRANCH   6   7
ENDBRANCH   5   6
ENDBRANCH   4   5
ENDBRANCH   3   4
ENDBRANCH   2   3
ENDBRANCH   1   2
BRANCH   1  14
ATOM     14  C   UNL     1       9.415  -0.819  -0.783  0.00  0.00    +0.000 C 
BRANCH  14  15
ATOM     15  C   UNL     1      10.800  -1.427  -1.033  0.00  0.00    +0.000 C 
BRANCH  15  16
ATOM     16  C   UNL     1      10.723  -2.848  -1.517  0.00  0.00    +0.000 A 
ATOM     17  C   UNL     1      10.322  -3.808  -0.605  0.00  0.00    +0.000 A 
ATOM     18  C   UNL     1       9.341  -4.664  -1.074  0.00  0.00    +0.000 A 
ATOM     19  C   UNL     1       9.421  -5.075  -2.387  0.00  0.00    +0.000 A 
ATOM     20  C   UNL     1      10.297  -4.470  -3.264  0.00  0.00    +0.000 A 
ATOM     21  C   UNL     1      10.728  -3.232  -2.880  0.00  0.00    +0.000 A 
BRANCH  19  22
ATOM     22  O   UNL     1       8.434  -5.831  -2.942  0.00  0.00    +0.000 OA
ATOM     23  H   UNL     1       8.506  -5.698  -3.907  0.00  0.00    +0.000 HD
ENDBRANCH  19  22
BRANCH  21  24
ATOM     24  O   UNL     1      10.964  -2.303  -3.874  0.00  0.00    +0.000 OA
ATOM     25  H   UNL     1      10.656  -1.459  -3.539  0.00  0.00    +0.000 HD
ENDBRANCH  21  24
ENDBRANCH  15  16
ENDBRANCH  14  15
ENDBRANCH   1  14
TORSDOF 16
ENDMDL
MODEL 7
REMARK VINA RESULT:    -3.959     14.305     16.543
REMARK INTER + INTRA:         -10.291
REMARK INTER:                  -7.979
REMARK INTRA:                  -2.312
REMARK UNBOUND:                -2.860
REMARK  Name = C:\DDRIVE\PROJECT\authml\backend\results\ligand_1764478874273.pdb
REMARK  17 active torsions:
REMARK  status: ('A' for Active; 'I' for Inactive)
REMARK    1  A    between atoms: C_1  and  C_2
REMARK    2  A    between atoms: C_2  and  C_3
REMARK    3  A    between atoms: C_3  and  C_4
REMARK    4  A    between atoms: C_4  and  C_5
REMARK    5  A    between atoms: C_5  and  C_6
REMARK    6  A    between atoms: C_6  and  C_7
REMARK    7  A    between atoms: C_7  and  C_8
REMARK    8  A    between atoms: C_8  and  C_9
REMARK    9  A    between atoms: C_9  and  C_10
REMARK   10  A    between atoms: C_10  and  C_11
REMARK   11  A    between atoms: C_11  and  C_12
REMARK   12  A    between atoms: C_12  and  C_13
REMARK   13  A    between atoms: C_13  and  C_14
REMARK   14  A    between atoms: C_14  and  C_15
REMARK   15  A    between atoms: C_15  and  C_16
REMARK   16  A    between atoms: C_19  and  O_20
REMARK   17  A    between atoms: C_22  and  O_23
REMARK                            x       y       z     vdW  Elec       q    Type
REMARK                         _______ _______ _______ _____ _____    ______ ____
ROOT
ATOM      1  C   UNL     1       8.821  -0.238   0.213  0.00  0.00    +0.000 C 
ENDROOT
BRANCH   1   2
ATOM      2  C   UNL     1       9.698  -0.617   1.410  0.00  0.00    +0.000 C 
BRANCH   2   3
ATOM      3  C   UNL     1       8.970  -0.460   2.741  0.00  0.00    +0.000 C 
BRANCH   3   4
ATOM      4  C   UNL     1       8.929  -1.785   3.508  0.00  0.00    +0.000 C 
BRANCH   4   5
ATOM      5  C   UNL     1      10.038  -2.737   3.051  0.00  0.00    +0.000 C 
BRANCH   5   6
ATOM      6  C   UNL     1       9.615  -4.201   3.179  0.00  0.00    +0.000 C 
BRANCH   6   7
ATOM      7  C   UNL     1       8.191  -4.426   2.654  0.00  0.00    +0.000 C 
BRANCH   7   8
ATOM      8  C   UNL     1       7.257  -4.942   3.754  0.00  0.00    +0.000 C 
BRANCH   8   9
ATOM      9  C   UNL     1       7.957  -4.986   5.119  0.00  0.00    +0.000 C 
BRANCH   9  10
ATOM     10  C   UNL     1       7.345  -3.980   6.102  0.00  0.00    +0.000 C 
BRANCH  10  11
ATOM     11  C   UNL     1       5.812  -3.976   6.030  0.00  0.00    +0.000 C 
BRANCH  11  13
ATOM     12  C   UNL     1       5.737  -4.850   8.401  0.00  0.00    +0.000 C 
ATOM     13  C   UNL     1       5.189  -4.996   6.987  0.00  0.00    +0.000 C 
ENDBRANCH  11  13
ENDBRANCH  10  11
ENDBRANCH   9  10
ENDBRANCH   8   9
ENDBRANCH   7   8
ENDBRANCH   6   7
ENDBRANCH   5   6
ENDBRANCH   4   5
ENDBRANCH   3   4
ENDBRANCH   2   3
ENDBRANCH   1   2
BRANCH   1  14
ATOM     14  C   UNL     1       9.396  -0.747  -1.113  0.00  0.00    +0.000 C 
BRANCH  14  15
ATOM     15  C   UNL     1      10.729  -1.478  -0.919  0.00  0.00    +0.000 C 
BRANCH  15  16
ATOM     16  C   UNL     1      10.682  -2.897  -1.411  0.00  0.00    +0.000 A 
ATOM     17  C   UNL     1      10.221  -3.859  -0.531  0.00  0.00    +0.000 A 
ATOM     18  C   UNL     1       9.272  -4.712  -1.064  0.00  0.00    +0.000 A 
ATOM     19  C   UNL     1       9.435  -5.120  -2.370  0.00  0.00    +0.000 A 
ATOM     20  C   UNL     1      10.367  -4.513  -3.187  0.00  0.00    +0.000 A 
ATOM     21  C   UNL     1      10.774  -3.277  -2.773  0.00  0.00    +0.000 A 
BRANCH  19  22
ATOM     22  O   UNL     1       8.484  -5.872  -2.990  0.00  0.00    +0.000 OA
ATOM     23  H   UNL     1       8.619  -5.736  -3.948  0.00  0.00    +0.000 HD
ENDBRANCH  19  22
BRANCH  21  24
ATOM     24  O   UNL     1      11.075  -2.346  -3.746  0.00  0.00    +0.000 OA
ATOM     25  H   UNL     1      10.747  -1.502  -3.430  0.00  0.00    +0.000 HD
ENDBRANCH  21  24
ENDBRANCH  15  16
ENDBRANCH  14  15
ENDBRANCH   1  14
TORSDOF 16
ENDMDL
MODEL 8
REMARK VINA RESULT:    -3.943      1.602      2.424
REMARK INTER + INTRA:         -10.261
REMARK INTER:                  -8.522
REMARK INTRA:                  -1.738
REMARK UNBOUND:                -2.860
REMARK  Name = C:\DDRIVE\PROJECT\authml\backend\results\ligand_1764478874273.pdb
REMARK  17 active torsions:
REMARK  status: ('A' for Active; 'I' for Inactive)
REMARK    1  A    between atoms: C_1  and  C_2
REMARK    2  A    between atoms: C_2  and  C_3
REMARK    3  A    between atoms: C_3  and  C_4
REMARK    4  A    between atoms: C_4  and  C_5
REMARK    5  A    between atoms: C_5  and  C_6
REMARK    6  A    between atoms: C_6  and  C_7
REMARK    7  A    between atoms: C_7  and  C_8
REMARK    8  A    between atoms: C_8  and  C_9
REMARK    9  A    between atoms: C_9  and  C_10
REMARK   10  A    between atoms: C_10  and  C_11
REMARK   11  A    between atoms: C_11  and  C_12
REMARK   12  A    between atoms: C_12  and  C_13
REMARK   13  A    between atoms: C_13  and  C_14
REMARK   14  A    between atoms: C_14  and  C_15
REMARK   15  A    between atoms: C_15  and  C_16
REMARK   16  A    between atoms: C_19  and  O_20
REMARK   17  A    between atoms: C_22  and  O_23
REMARK                            x       y       z     vdW  Elec       q    Type
REMARK                         _______ _______ _______ _____ _____    ______ ____
ROOT
ATOM      1  C   UNL     1      -6.417  -0.059  -0.630  0.00  0.00    +0.000 C 
ENDROOT
BRANCH   1   2
ATOM      2  C   UNL     1      -4.951  -0.498  -0.680  0.00  0.00    +0.000 C 
BRANCH   2   3
ATOM      3  C   UNL     1      -4.564  -1.377   0.506  0.00  0.00    +0.000 C 
BRANCH   3   4
ATOM      4  C   UNL     1      -5.764  -1.620   1.426  0.00  0.00    +0.000 C 
BRANCH   4   5
ATOM      5  C   UNL     1      -5.324  -1.912   2.864  0.00  0.00    +0.000 C 
BRANCH   5   6
ATOM      6  C   UNL     1      -3.848  -2.301   2.936  0.00  0.00    +0.000 C 
BRANCH   6   7
ATOM      7  C   UNL     1      -3.668  -3.761   3.371  0.00  0.00    +0.000 C 
BRANCH   7   8
ATOM      8  C   UNL     1      -4.970  -4.559   3.226  0.00  0.00    +0.000 C 
BRANCH   8   9
ATOM      9  C   UNL     1      -4.818  -5.717   2.232  0.00  0.00    +0.000 C 
BRANCH   9  10
ATOM     10  C   UNL     1      -4.015  -5.300   0.994  0.00  0.00    +0.000 C 
BRANCH  10  11
ATOM     11  C   UNL     1      -2.916  -6.319   0.660  0.00  0.00    +0.000 C 
BRANCH  11  13
ATOM     12  C   UNL     1      -3.457  -5.364  -1.619  0.00  0.00    +0.000 C 
ATOM     13  C   UNL     1      -2.636  -6.388  -0.845  0.00  0.00    +0.000 C 
ENDBRANCH  11  13
ENDBRANCH  10  11
ENDBRANCH   9  10
ENDBRANCH   8   9
ENDBRANCH   7   8
ENDBRANCH   6   7
ENDBRANCH   5   6
ENDBRANCH   4   5
ENDBRANCH   3   4
ENDBRANCH   2   3
ENDBRANCH   1   2
BRANCH   1  14
ATOM     14  C   UNL     1      -6.564   1.465  -0.566  0.00  0.00    +0.000 C 
BRANCH  14  15
ATOM     15  C   UNL     1      -8.034   1.901  -0.536  0.00  0.00    +0.000 C 
BRANCH  15  16
ATOM     16  C   UNL     1      -8.651   1.739   0.824  0.00  0.00    +0.000 A 
ATOM     17  C   UNL     1      -9.146   0.489   1.152  0.00  0.00    +0.000 A 
ATOM     18  C   UNL     1      -8.748   0.026   2.394  0.00  0.00    +0.000 A 
ATOM     19  C   UNL     1      -8.677   0.936   3.426  0.00  0.00    +0.000 A 
ATOM     20  C   UNL     1      -8.760   2.290   3.180  0.00  0.00    +0.000 A 
ATOM     21  C   UNL     1      -8.492   2.656   1.892  0.00  0.00    +0.000 A 
BRANCH  19  22
ATOM     22  O   UNL     1      -8.191   0.570   4.645  0.00  0.00    +0.000 OA
ATOM     23  H   UNL     1      -7.234   0.421   4.518  0.00  0.00    +0.000 HD
ENDBRANCH  19  22
BRANCH  21  24
ATOM     24  O   UNL     1      -7.864   3.869   1.692  0.00  0.00    +0.000 OA
ATOM     25  H   UNL     1      -8.000   4.384   2.489  0.00  0.00    +0.000 HD
ENDBRANCH  21  24
ENDBRANCH  15  16
ENDBRANCH  14  15
ENDBRANCH   1  14
TORSDOF 16
ENDMDL
MODEL 9
REMARK VINA RESULT:    -3.921     14.943     17.100
REMARK INTER + INTRA:         -10.220
REMARK INTER:                  -7.939
REMARK INTRA:                  -2.281
REMARK UNBOUND:                -2.860
REMARK  Name = C:\DDRIVE\PROJECT\authml\backend\results\ligand_1764478874273.pdb
REMARK  17 active torsions:
REMARK  status: ('A' for Active; 'I' for Inactive)
REMARK    1  A    between atoms: C_1  and  C_2
REMARK    2  A    between atoms: C_2  and  C_3
REMARK    3  A    between atoms: C_3  and  C_4
REMARK    4  A    between atoms: C_4  and  C_5
REMARK    5  A    between atoms: C_5  and  C_6
REMARK    6  A    between atoms: C_6  and  C_7
REMARK    7  A    between atoms: C_7  and  C_8
REMARK    8  A    between atoms: C_8  and  C_9
REMARK    9  A    between atoms: C_9  and  C_10
REMARK   10  A    between atoms: C_10  and  C_11
REMARK   11  A    between atoms: C_11  and  C_12
REMARK   12  A    between atoms: C_12  and  C_13
REMARK   13  A    between atoms: C_13  and  C_14
REMARK   14  A    between atoms: C_14  and  C_15
REMARK   15  A    between atoms: C_15  and  C_16
REMARK   16  A    between atoms: C_19  and  O_20
REMARK   17  A    between atoms: C_22  and  O_23
REMARK                            x       y       z     vdW  Elec       q    Type
REMARK                         _______ _______ _______ _____ _____    ______ ____
ROOT
ATOM      1  C   UNL     1      12.074  -4.464  -3.135  0.00  0.00    +0.000 C 
ENDROOT
BRANCH   1   2
ATOM      2  C   UNL     1      11.256  -5.683  -2.699  0.00  0.00    +0.000 C 
BRANCH   2   3
ATOM      3  C   UNL     1      11.780  -6.306  -1.408  0.00  0.00    +0.000 C 
BRANCH   3   4
ATOM      4  C   UNL     1      10.655  -6.995  -0.631  0.00  0.00    +0.000 C 
BRANCH   4   5
ATOM      5  C   UNL     1       9.289  -6.757  -1.282  0.00  0.00    +0.000 C 
BRANCH   5   6
ATOM      6  C   UNL     1       8.363  -5.948  -0.375  0.00  0.00    +0.000 C 
BRANCH   6   7
ATOM      7  C   UNL     1       8.579  -6.291   1.104  0.00  0.00    +0.000 C 
BRANCH   7   8
ATOM      8  C   UNL     1       8.552  -5.037   1.986  0.00  0.00    +0.000 C 
BRANCH   8   9
ATOM      9  C   UNL     1       7.373  -5.058   2.967  0.00  0.00    +0.000 C 
BRANCH   9  10
ATOM     10  C   UNL     1       7.796  -4.612   4.372  0.00  0.00    +0.000 C 
BRANCH  10  11
ATOM     11  C   UNL     1       8.378  -5.776   5.187  0.00  0.00    +0.000 C 
BRANCH  11  13
ATOM     12  C   UNL     1       6.403  -5.105   6.616  0.00  0.00    +0.000 C 
ATOM     13  C   UNL     1       7.482  -6.152   6.371  0.00  0.00    +0.000 C 
ENDBRANCH  11  13
ENDBRANCH  10  11
ENDBRANCH   9  10
ENDBRANCH   8   9
ENDBRANCH   7   8
ENDBRANCH   6   7
ENDBRANCH   5   6
ENDBRANCH   4   5
ENDBRANCH   3   4
ENDBRANCH   2   3
ENDBRANCH   1   2
BRANCH   1  14
ATOM     14  C   UNL     1      11.230  -3.186  -3.182  0.00  0.00    +0.000 C 
BRANCH  14  15
ATOM     15  C   UNL     1       9.992  -3.281  -2.284  0.00  0.00    +0.000 C 
BRANCH  15  16
ATOM     16  C   UNL     1      10.079  -2.375  -1.089  0.00  0.00    +0.000 A 
ATOM     17  C   UNL     1      10.875  -2.787  -0.036  0.00  0.00    +0.000 A 
ATOM     18  C   UNL     1      11.743  -1.819   0.436  0.00  0.00    +0.000 A 
ATOM     19  C   UNL     1      11.284  -0.521   0.500  0.00  0.00    +0.000 A 
ATOM     20  C   UNL     1      10.099  -0.161  -0.107  0.00  0.00    +0.000 A 
ATOM     21  C   UNL     1       9.670  -1.018  -1.080  0.00  0.00    +0.000 A 
BRANCH  19  22
ATOM     22  O   UNL     1      12.117   0.497   0.854  0.00  0.00    +0.000 OA
ATOM     23  H   UNL     1      12.939   0.073   1.167  0.00  0.00    +0.000 HD
ENDBRANCH  19  22
BRANCH  21  24
ATOM     24  O   UNL     1       9.005  -0.475  -2.160  0.00  0.00    +0.000 OA
ATOM     25  H   UNL     1       8.173  -0.945  -2.236  0.00  0.00    +0.000 HD
ENDBRANCH  21  24
ENDBRANCH  15  16
ENDBRANCH  14  15
ENDBRANCH   1  14
TORSDOF 16
ENDMDL
