MODEL 1
REMARK VINA RESULT:    -2.928      0.000      0.000
REMARK INTER + INTRA:          -3.597
REMARK INTER:                  -3.442
REMARK INTRA:                  -0.156
REMARK UNBOUND:                -0.156
REMARK  Name = results/17d8d7d4-d743-4922-88e8-f3a77debfd9f_ligand.pdb
REMARK  6 active torsions:
REMARK  status: ('A' for Active; 'I' for Inactive)
REMARK    1  A    between atoms: C1_1  and  C2_2
REMARK    2  A    between atoms: C2_2  and  N1_3
REMARK    3  A    between atoms: N1_3  and  C3_4
REMARK    4  A    between atoms: N1_3  and  C5_6
REMARK    5  A    between atoms: C3_4  and  C4_5
REMARK    6  A    between atoms: C5_6  and  C6_7
REMARK                            x       y       z     vdW  Elec       q    Type
REMARK                         _______ _______ _______ _____ _____    ______ ____
ROOT
ATOM      1  N1  UNL     1      -4.551  -3.233   2.251  0.00  0.00    +0.000 NA
ENDROOT
BRANCH   1   3
ATOM      2  C1  UNL     1      -2.630  -2.914   3.753  0.00  0.00    +0.000 C 
ATOM      3  C2  UNL     1      -3.744  -3.863   3.329  0.00  0.00    +0.000 C 
ENDBRANCH   1   3
BRANCH   1   4
ATOM      4  C3  UNL     1      -4.074  -3.625   0.905  0.00  0.00    +0.000 C 
ATOM      5  C4  UNL     1      -3.634  -5.089   0.884  0.00  0.00    +0.000 C 
ENDBRANCH   1   4
BRANCH   1   6
ATOM      6  C5  UNL     1      -4.581  -1.757   2.379  0.00  0.00    +0.000 C 
ATOM      7  C6  UNL     1      -5.939  -1.279   2.891  0.00  0.00    +0.000 C 
ENDBRANCH   1   6
TORSDOF 3
ENDMDL
MODEL 2
REMARK VINA RESULT:    -2.920      0.642      2.501
REMARK INTER + INTRA:          -3.587
REMARK INTER:                  -3.430
REMARK INTRA:                  -0.157
REMARK UNBOUND:                -0.156
REMARK  Name = results/17d8d7d4-d743-4922-88e8-f3a77debfd9f_ligand.pdb
REMARK  6 active torsions:
REMARK  status: ('A' for Active; 'I' for Inactive)
REMARK    1  A    between atoms: C1_1  and  C2_2
REMARK    2  A    between atoms: C2_2  and  N1_3
REMARK    3  A    between atoms: N1_3  and  C3_4
REMARK    4  A    between atoms: N1_3  and  C5_6
REMARK    5  A    between atoms: C3_4  and  C4_5
REMARK    6  A    between atoms: C5_6  and  C6_7
REMARK                            x       y       z     vdW  Elec       q    Type
REMARK                         _______ _______ _______ _____ _____    ______ ____
ROOT
ATOM      1  N1  UNL     1      -4.255  -3.005   1.970  0.00  0.00    +0.000 NA
ENDROOT
BRANCH   1   3
ATOM      2  C1  UNL     1      -3.582  -4.962   0.642  0.00  0.00    +0.000 C 
ATOM      3  C2  UNL     1      -4.293  -3.615   0.615  0.00  0.00    +0.000 C 
ENDBRANCH   1   3
BRANCH   1   4
ATOM      4  C3  UNL     1      -3.437  -3.805   2.910  0.00  0.00    +0.000 C 
ATOM      5  C4  UNL     1      -2.593  -2.902   3.810  0.00  0.00    +0.000 C 
ENDBRANCH   1   4
BRANCH   1   6
ATOM      6  C5  UNL     1      -5.615  -2.795   2.516  0.00  0.00    +0.000 C 
ATOM      7  C6  UNL     1      -5.851  -1.322   2.848  0.00  0.00    +0.000 C 
ENDBRANCH   1   6
TORSDOF 3
ENDMDL
MODEL 3
REMARK VINA RESULT:    -2.914      0.224      3.192
REMARK INTER + INTRA:          -3.580
REMARK INTER:                  -3.419
REMARK INTRA:                  -0.161
REMARK UNBOUND:                -0.156
REMARK  Name = results/17d8d7d4-d743-4922-88e8-f3a77debfd9f_ligand.pdb
REMARK  6 active torsions:
REMARK  status: ('A' for Active; 'I' for Inactive)
REMARK    1  A    between atoms: C1_1  and  C2_2
REMARK    2  A    between atoms: C2_2  and  N1_3
REMARK    3  A    between atoms: N1_3  and  C3_4
REMARK    4  A    between atoms: N1_3  and  C5_6
REMARK    5  A    between atoms: C3_4  and  C4_5
REMARK    6  A    between atoms: C5_6  and  C6_7
REMARK                            x       y       z     vdW  Elec       q    Type
REMARK                         _______ _______ _______ _____ _____    ______ ____
ROOT
ATOM      1  N1  UNL     1      -4.567  -3.265   2.261  0.00  0.00    +0.000 NA
ENDROOT
BRANCH   1   3
ATOM      2  C1  UNL     1      -3.575  -4.866   0.681  0.00  0.00    +0.000 C 
ATOM      3  C2  UNL     1      -4.429  -3.612   0.823  0.00  0.00    +0.000 C 
ENDBRANCH   1   3
BRANCH   1   4
ATOM      4  C3  UNL     1      -4.552  -1.800   2.478  0.00  0.00    +0.000 C 
ATOM      5  C4  UNL     1      -5.938  -1.289   2.873  0.00  0.00    +0.000 C 
ENDBRANCH   1   4
BRANCH   1   6
ATOM      6  C5  UNL     1      -3.528  -3.920   3.087  0.00  0.00    +0.000 C 
ATOM      7  C6  UNL     1      -2.622  -2.885   3.753  0.00  0.00    +0.000 C 
ENDBRANCH   1   6
TORSDOF 3
ENDMDL
MODEL 4
REMARK VINA RESULT:    -2.889      0.286      3.138
REMARK INTER + INTRA:          -3.552
REMARK INTER:                  -3.393
REMARK INTRA:                  -0.159
REMARK UNBOUND:                -0.156
REMARK  Name = results/17d8d7d4-d743-4922-88e8-f3a77debfd9f_ligand.pdb
REMARK  6 active torsions:
REMARK  status: ('A' for Active; 'I' for Inactive)
REMARK    1  A    between atoms: C1_1  and  C2_2
REMARK    2  A    between atoms: C2_2  and  N1_3
REMARK    3  A    between atoms: N1_3  and  C3_4
REMARK    4  A    between atoms: N1_3  and  C5_6
REMARK    5  A    between atoms: C3_4  and  C4_5
REMARK    6  A    between atoms: C5_6  and  C6_7
REMARK                            x       y       z     vdW  Elec       q    Type
REMARK                         _______ _______ _______ _____ _____    ______ ____
ROOT
ATOM      1  N1  UNL     1      -4.588  -3.195   2.277  0.00  0.00    +0.000 NA
ENDROOT
BRANCH   1   3
ATOM      2  C1  UNL     1      -6.175  -1.350   2.625  0.00  0.00    +0.000 C 
ATOM      3  C2  UNL     1      -4.707  -1.760   2.646  0.00  0.00    +0.000 C 
ENDBRANCH   1   3
BRANCH   1   4
ATOM      4  C3  UNL     1      -3.616  -3.906   3.139  0.00  0.00    +0.000 C 
ATOM      5  C4  UNL     1      -2.622  -2.929   3.768  0.00  0.00    +0.000 C 
ENDBRANCH   1   4
BRANCH   1   6
ATOM      6  C5  UNL     1      -4.234  -3.367   0.849  0.00  0.00    +0.000 C 
ATOM      7  C6  UNL     1      -3.751  -4.790   0.571  0.00  0.00    +0.000 C 
ENDBRANCH   1   6
TORSDOF 3
ENDMDL
MODEL 5
REMARK VINA RESULT:    -2.828      1.192      2.559
REMARK INTER + INTRA:          -3.480
REMARK INTER:                  -3.341
REMARK INTRA:                  -0.139
REMARK UNBOUND:                -0.156
REMARK  Name = results/17d8d7d4-d743-4922-88e8-f3a77debfd9f_ligand.pdb
REMARK  6 active torsions:
REMARK  status: ('A' for Active; 'I' for Inactive)
REMARK    1  A    between atoms: C1_1  and  C2_2
REMARK    2  A    between atoms: C2_2  and  N1_3
REMARK    3  A    between atoms: N1_3  and  C3_4
REMARK    4  A    between atoms: N1_3  and  C5_6
REMARK    5  A    between atoms: C3_4  and  C4_5
REMARK    6  A    between atoms: C5_6  and  C6_7
REMARK                            x       y       z     vdW  Elec       q    Type
REMARK                         _______ _______ _______ _____ _____    ______ ____
ROOT
ATOM      1  N1  UNL     1      -3.650  -3.831   1.706  0.00  0.00    +0.000 NA
ENDROOT
BRANCH   1   3
ATOM      2  C1  UNL     1      -4.922  -1.837   1.035  0.00  0.00    +0.000 C 
ATOM      3  C2  UNL     1      -4.530  -3.259   0.654  0.00  0.00    +0.000 C 
ENDBRANCH   1   3
BRANCH   1   4
ATOM      4  C3  UNL     1      -3.753  -5.307   1.767  0.00  0.00    +0.000 C 
ATOM      5  C4  UNL     1      -3.049  -5.956   0.575  0.00  0.00    +0.000 C 
ENDBRANCH   1   4
BRANCH   1   6
ATOM      6  C5  UNL     1      -3.927  -3.239   3.035  0.00  0.00    +0.000 C 
ATOM      7  C6  UNL     1      -2.628  -2.936   3.782  0.00  0.00    +0.000 C 
ENDBRANCH   1   6
TORSDOF 3
ENDMDL
MODEL 6
REMARK VINA RESULT:    -2.792      1.550      2.127
REMARK INTER + INTRA:          -3.437
REMARK INTER:                  -3.301
REMARK INTRA:                  -0.136
REMARK UNBOUND:                -0.156
REMARK  Name = results/17d8d7d4-d743-4922-88e8-f3a77debfd9f_ligand.pdb
REMARK  6 active torsions:
REMARK  status: ('A' for Active; 'I' for Inactive)
REMARK    1  A    between atoms: C1_1  and  C2_2
REMARK    2  A    between atoms: C2_2  and  N1_3
REMARK    3  A    between atoms: N1_3  and  C3_4
REMARK    4  A    between atoms: N1_3  and  C5_6
REMARK    5  A    between atoms: C3_4  and  C4_5
REMARK    6  A    between atoms: C5_6  and  C6_7
REMARK                            x       y       z     vdW  Elec       q    Type
REMARK                         _______ _______ _______ _____ _____    ______ ____
ROOT
ATOM      1  N1  UNL     1      -3.730  -4.678   2.198  0.00  0.00    +0.000 NA
ENDROOT
BRANCH   1   3
ATOM      2  C1  UNL     1      -2.679  -3.030   3.689  0.00  0.00    +0.000 C 
ATOM      3  C2  UNL     1      -3.802  -3.277   2.690  0.00  0.00    +0.000 C 
ENDBRANCH   1   3
BRANCH   1   4
ATOM      4  C3  UNL     1      -3.580  -4.738   0.726  0.00  0.00    +0.000 C 
ATOM      5  C4  UNL     1      -2.896  -6.036   0.296  0.00  0.00    +0.000 C 
ENDBRANCH   1   4
BRANCH   1   6
ATOM      6  C5  UNL     1      -4.903  -5.473   2.631  0.00  0.00    +0.000 C 
ATOM      7  C6  UNL     1      -6.036  -4.564   3.106  0.00  0.00    +0.000 C 
ENDBRANCH   1   6
TORSDOF 3
ENDMDL
MODEL 7
REMARK VINA RESULT:    -2.718      1.343      2.744
REMARK INTER + INTRA:          -3.351
REMARK INTER:                  -3.144
REMARK INTRA:                  -0.206
REMARK UNBOUND:                -0.156
REMARK  Name = results/17d8d7d4-d743-4922-88e8-f3a77debfd9f_ligand.pdb
REMARK  6 active torsions:
REMARK  status: ('A' for Active; 'I' for Inactive)
REMARK    1  A    between atoms: C1_1  and  C2_2
REMARK    2  A    between atoms: C2_2  and  N1_3
REMARK    3  A    between atoms: N1_3  and  C3_4
REMARK    4  A    between atoms: N1_3  and  C5_6
REMARK    5  A    between atoms: C3_4  and  C4_5
REMARK    6  A    between atoms: C5_6  and  C6_7
REMARK                            x       y       z     vdW  Elec       q    Type
REMARK                         _______ _______ _______ _____ _____    ______ ____
ROOT
ATOM      1  N1  UNL     1      -4.648  -3.147   2.045  0.00  0.00    +0.000 NA
ENDROOT
BRANCH   1   3
ATOM      2  C1  UNL     1      -2.782  -3.090   3.646  0.00  0.00    +0.000 C 
ATOM      3  C2  UNL     1      -3.502  -3.921   2.591  0.00  0.00    +0.000 C 
ENDBRANCH   1   3
BRANCH   1   4
ATOM      4  C3  UNL     1      -4.599  -1.726   2.459  0.00  0.00    +0.000 C 
ATOM      5  C4  UNL     1      -5.991  -1.214   2.830  0.00  0.00    +0.000 C 
ENDBRANCH   1   4
BRANCH   1   6
ATOM      6  C5  UNL     1      -5.947  -3.751   2.421  0.00  0.00    +0.000 C 
ATOM      7  C6  UNL     1      -5.773  -5.211   2.838  0.00  0.00    +0.000 C 
ENDBRANCH   1   6
TORSDOF 3
ENDMDL
MODEL 8
REMARK VINA RESULT:    -2.505     13.778     14.777
REMARK INTER + INTRA:          -3.100
REMARK INTER:                  -2.956
REMARK INTRA:                  -0.144
REMARK UNBOUND:                -0.156
REMARK  Name = results/17d8d7d4-d743-4922-88e8-f3a77debfd9f_ligand.pdb
REMARK  6 active torsions:
REMARK  status: ('A' for Active; 'I' for Inactive)
REMARK    1  A    between atoms: C1_1  and  C2_2
REMARK    2  A    between atoms: C2_2  and  N1_3
REMARK    3  A    between atoms: N1_3  and  C3_4
REMARK    4  A    between atoms: N1_3  and  C5_6
REMARK    5  A    between atoms: C3_4  and  C4_5
REMARK    6  A    between atoms: C5_6  and  C6_7
REMARK                            x       y       z     vdW  Elec       q    Type
REMARK                         _______ _______ _______ _____ _____    ______ ____
ROOT
ATOM      1  N1  UNL     1       9.804  -4.898  -1.919  0.00  0.00    +0.000 NA
ENDROOT
BRANCH   1   3
ATOM      2  C1  UNL     1       8.497  -5.823  -0.052  0.00  0.00    +0.000 C 
ATOM      3  C2  UNL     1       8.427  -5.121  -1.403  0.00  0.00    +0.000 C 
ENDBRANCH   1   3
BRANCH   1   4
ATOM      4  C3  UNL     1      10.157  -3.460  -1.938  0.00  0.00    +0.000 C 
ATOM      5  C4  UNL     1      10.820  -3.074  -3.261  0.00  0.00    +0.000 C 
ENDBRANCH   1   4
BRANCH   1   6
ATOM      6  C5  UNL     1       9.991  -5.494  -3.262  0.00  0.00    +0.000 C 
ATOM      7  C6  UNL     1       8.762  -6.302  -3.679  0.00  0.00    +0.000 C 
ENDBRANCH   1   6
TORSDOF 3
ENDMDL
MODEL 9
REMARK VINA RESULT:    -2.440     14.282     15.123
REMARK INTER + INTRA:          -3.023
REMARK INTER:                  -2.866
REMARK INTRA:                  -0.157
REMARK UNBOUND:                -0.156
REMARK  Name = results/17d8d7d4-d743-4922-88e8-f3a77debfd9f_ligand.pdb
REMARK  6 active torsions:
REMARK  status: ('A' for Active; 'I' for Inactive)
REMARK    1  A    between atoms: C1_1  and  C2_2
REMARK    2  A    between atoms: C2_2  and  N1_3
REMARK    3  A    between atoms: N1_3  and  C3_4
REMARK    4  A    between atoms: N1_3  and  C5_6
REMARK    5  A    between atoms: C3_4  and  C4_5
REMARK    6  A    between atoms: C5_6  and  C6_7
REMARK                            x       y       z     vdW  Elec       q    Type
REMARK                         _______ _______ _______ _____ _____    ______ ____
ROOT
ATOM      1  N1  UNL     1      10.140  -4.423  -1.870  0.00  0.00    +0.000 NA
ENDROOT
BRANCH   1   3
ATOM      2  C1  UNL     1      12.152  -4.176  -3.263  0.00  0.00    +0.000 C 
ATOM      3  C2  UNL     1      10.679  -3.813  -3.114  0.00  0.00    +0.000 C 
ENDBRANCH   1   3
BRANCH   1   4
ATOM      4  C3  UNL     1       8.832  -5.077  -2.100  0.00  0.00    +0.000 C 
ATOM      5  C4  UNL     1       8.906  -6.059  -3.269  0.00  0.00    +0.000 C 
ENDBRANCH   1   4
BRANCH   1   6
ATOM      6  C5  UNL     1      10.038  -3.432  -0.773  0.00  0.00    +0.000 C 
ATOM      7  C6  UNL     1       9.871  -2.017  -1.326  0.00  0.00    +0.000 C 
ENDBRANCH   1   6
TORSDOF 3
ENDMDL
