MODEL 1
REMARK VINA RESULT:    -3.163      0.000      0.000
REMARK INTER + INTRA:          -3.852
REMARK INTER:                  -3.718
REMARK INTRA:                  -0.134
REMARK UNBOUND:                -0.134
REMARK  Name = results/023d2b59-0b5a-42b5-9723-3156b85df557_ligand.pdb
REMARK  6 active torsions:
REMARK  status: ('A' for Active; 'I' for Inactive)
REMARK    1  A    between atoms: C1_1  and  C2_2
REMARK    2  A    between atoms: C2_2  and  N1_3
REMARK    3  A    between atoms: N1_3  and  C3_4
REMARK    4  A    between atoms: N1_3  and  C5_6
REMARK    5  A    between atoms: C3_4  and  C4_5
REMARK    6  A    between atoms: C5_6  and  C6_7
REMARK                            x       y       z     vdW  Elec       q    Type
REMARK                         _______ _______ _______ _____ _____    ______ ____
ROOT
ATOM      1  N1  UNL     1       4.702   2.221   4.310  0.00  0.00    +0.000 NA
ENDROOT
BRANCH   1   3
ATOM      2  C1  UNL     1       6.418   3.981   4.282  0.00  0.00    +0.000 C 
ATOM      3  C2  UNL     1       5.087   3.521   3.701  0.00  0.00    +0.000 C 
ENDBRANCH   1   3
BRANCH   1   4
ATOM      4  C3  UNL     1       3.395   2.303   5.001  0.00  0.00    +0.000 C 
ATOM      5  C4  UNL     1       3.503   3.126   6.286  0.00  0.00    +0.000 C 
ENDBRANCH   1   4
BRANCH   1   6
ATOM      6  C5  UNL     1       5.744   1.716   5.233  0.00  0.00    +0.000 C 
ATOM      7  C6  UNL     1       6.336   0.401   4.726  0.00  0.00    +0.000 C 
ENDBRANCH   1   6
TORSDOF 3
ENDMDL
MODEL 2
REMARK VINA RESULT:    -3.163      0.180      3.014
REMARK INTER + INTRA:          -3.851
REMARK INTER:                  -3.701
REMARK INTRA:                  -0.150
REMARK UNBOUND:                -0.134
REMARK  Name = results/023d2b59-0b5a-42b5-9723-3156b85df557_ligand.pdb
REMARK  6 active torsions:
REMARK  status: ('A' for Active; 'I' for Inactive)
REMARK    1  A    between atoms: C1_1  and  C2_2
REMARK    2  A    between atoms: C2_2  and  N1_3
REMARK    3  A    between atoms: N1_3  and  C3_4
REMARK    4  A    between atoms: N1_3  and  C5_6
REMARK    5  A    between atoms: C3_4  and  C4_5
REMARK    6  A    between atoms: C5_6  and  C6_7
REMARK                            x       y       z     vdW  Elec       q    Type
REMARK                         _______ _______ _______ _____ _____    ______ ____
ROOT
ATOM      1  N1  UNL     1       4.812   2.131   4.277  0.00  0.00    +0.000 NA
ENDROOT
BRANCH   1   3
ATOM      2  C1  UNL     1       3.413   3.056   6.075  0.00  0.00    +0.000 C 
ATOM      3  C2  UNL     1       3.472   2.066   4.919  0.00  0.00    +0.000 C 
ENDBRANCH   1   3
BRANCH   1   4
ATOM      4  C3  UNL     1       5.877   1.629   5.174  0.00  0.00    +0.000 C 
ATOM      5  C4  UNL     1       6.448   0.306   4.662  0.00  0.00    +0.000 C 
ENDBRANCH   1   4
BRANCH   1   6
ATOM      6  C5  UNL     1       5.131   3.501   3.811  0.00  0.00    +0.000 C 
ATOM      7  C6  UNL     1       6.502   3.946   4.318  0.00  0.00    +0.000 C 
ENDBRANCH   1   6
TORSDOF 3
ENDMDL
MODEL 3
REMARK VINA RESULT:    -3.127      1.468      2.932
REMARK INTER + INTRA:          -3.809
REMARK INTER:                  -3.658
REMARK INTRA:                  -0.151
REMARK UNBOUND:                -0.134
REMARK  Name = results/023d2b59-0b5a-42b5-9723-3156b85df557_ligand.pdb
REMARK  6 active torsions:
REMARK  status: ('A' for Active; 'I' for Inactive)
REMARK    1  A    between atoms: C1_1  and  C2_2
REMARK    2  A    between atoms: C2_2  and  N1_3
REMARK    3  A    between atoms: N1_3  and  C3_4
REMARK    4  A    between atoms: N1_3  and  C5_6
REMARK    5  A    between atoms: C3_4  and  C4_5
REMARK    6  A    between atoms: C5_6  and  C6_7
REMARK                            x       y       z     vdW  Elec       q    Type
REMARK                         _______ _______ _______ _____ _____    ______ ____
ROOT
ATOM      1  N1  UNL     1       5.625   2.822   5.290  0.00  0.00    +0.000 NA
ENDROOT
BRANCH   1   3
ATOM      2  C1  UNL     1       5.442   4.986   6.444  0.00  0.00    +0.000 C 
ATOM      3  C2  UNL     1       5.468   4.287   5.091  0.00  0.00    +0.000 C 
ENDBRANCH   1   3
BRANCH   1   4
ATOM      4  C3  UNL     1       6.991   2.364   4.949  0.00  0.00    +0.000 C 
ATOM      5  C4  UNL     1       6.979   0.917   4.457  0.00  0.00    +0.000 C 
ENDBRANCH   1   4
BRANCH   1   6
ATOM      6  C5  UNL     1       4.616   2.052   4.528  0.00  0.00    +0.000 C 
ATOM      7  C6  UNL     1       3.207   2.320   5.058  0.00  0.00    +0.000 C 
ENDBRANCH   1   6
TORSDOF 3
ENDMDL
MODEL 4
REMARK VINA RESULT:    -3.120      1.549      2.798
REMARK INTER + INTRA:          -3.801
REMARK INTER:                  -3.650
REMARK INTRA:                  -0.151
REMARK UNBOUND:                -0.134
REMARK  Name = results/023d2b59-0b5a-42b5-9723-3156b85df557_ligand.pdb
REMARK  6 active torsions:
REMARK  status: ('A' for Active; 'I' for Inactive)
REMARK    1  A    between atoms: C1_1  and  C2_2
REMARK    2  A    between atoms: C2_2  and  N1_3
REMARK    3  A    between atoms: N1_3  and  C3_4
REMARK    4  A    between atoms: N1_3  and  C5_6
REMARK    5  A    between atoms: C3_4  and  C4_5
REMARK    6  A    between atoms: C5_6  and  C6_7
REMARK                            x       y       z     vdW  Elec       q    Type
REMARK                         _______ _______ _______ _____ _____    ______ ____
ROOT
ATOM      1  N1  UNL     1       5.735   2.833   5.321  0.00  0.00    +0.000 NA
ENDROOT
BRANCH   1   3
ATOM      2  C1  UNL     1       7.294   1.091   4.559  0.00  0.00    +0.000 C 
ATOM      3  C2  UNL     1       7.147   2.557   4.946  0.00  0.00    +0.000 C 
ENDBRANCH   1   3
BRANCH   1   4
ATOM      4  C3  UNL     1       4.789   1.981   4.566  0.00  0.00    +0.000 C 
ATOM      5  C4  UNL     1       3.344   2.262   4.981  0.00  0.00    +0.000 C 
ENDBRANCH   1   4
BRANCH   1   6
ATOM      6  C5  UNL     1       5.392   4.264   5.151  0.00  0.00    +0.000 C 
ATOM      7  C6  UNL     1       5.456   5.006   6.486  0.00  0.00    +0.000 C 
ENDBRANCH   1   6
TORSDOF 3
ENDMDL
MODEL 5
REMARK VINA RESULT:    -3.112      1.559      2.340
REMARK INTER + INTRA:          -3.791
REMARK INTER:                  -3.639
REMARK INTRA:                  -0.152
REMARK UNBOUND:                -0.134
REMARK  Name = results/023d2b59-0b5a-42b5-9723-3156b85df557_ligand.pdb
REMARK  6 active torsions:
REMARK  status: ('A' for Active; 'I' for Inactive)
REMARK    1  A    between atoms: C1_1  and  C2_2
REMARK    2  A    between atoms: C2_2  and  N1_3
REMARK    3  A    between atoms: N1_3  and  C3_4
REMARK    4  A    between atoms: N1_3  and  C5_6
REMARK    5  A    between atoms: C3_4  and  C4_5
REMARK    6  A    between atoms: C5_6  and  C6_7
REMARK                            x       y       z     vdW  Elec       q    Type
REMARK                         _______ _______ _______ _____ _____    ______ ____
ROOT
ATOM      1  N1  UNL     1       5.742   2.839   5.391  0.00  0.00    +0.000 NA
ENDROOT
BRANCH   1   3
ATOM      2  C1  UNL     1       3.378   2.311   4.967  0.00  0.00    +0.000 C 
ATOM      3  C2  UNL     1       4.819   2.011   4.571  0.00  0.00    +0.000 C 
ENDBRANCH   1   3
BRANCH   1   4
ATOM      4  C3  UNL     1       5.495   4.287   5.206  0.00  0.00    +0.000 C 
ATOM      5  C4  UNL     1       5.488   5.019   6.548  0.00  0.00    +0.000 C 
ENDBRANCH   1   4
BRANCH   1   6
ATOM      6  C5  UNL     1       7.161   2.516   5.115  0.00  0.00    +0.000 C 
ATOM      7  C6  UNL     1       7.303   1.100   4.559  0.00  0.00    +0.000 C 
ENDBRANCH   1   6
TORSDOF 3
ENDMDL
MODEL 6
REMARK VINA RESULT:    -3.087      1.626      2.829
REMARK INTER + INTRA:          -3.762
REMARK INTER:                  -3.558
REMARK INTRA:                  -0.204
REMARK UNBOUND:                -0.134
REMARK  Name = results/023d2b59-0b5a-42b5-9723-3156b85df557_ligand.pdb
REMARK  6 active torsions:
REMARK  status: ('A' for Active; 'I' for Inactive)
REMARK    1  A    between atoms: C1_1  and  C2_2
REMARK    2  A    between atoms: C2_2  and  N1_3
REMARK    3  A    between atoms: N1_3  and  C3_4
REMARK    4  A    between atoms: N1_3  and  C5_6
REMARK    5  A    between atoms: C3_4  and  C4_5
REMARK    6  A    between atoms: C5_6  and  C6_7
REMARK                            x       y       z     vdW  Elec       q    Type
REMARK                         _______ _______ _______ _____ _____    ______ ____
ROOT
ATOM      1  N1  UNL     1       6.791   2.553   4.866  0.00  0.00    +0.000 NA
ENDROOT
BRANCH   1   3
ATOM      2  C1  UNL     1       4.950   3.460   3.511  0.00  0.00    +0.000 C 
ATOM      3  C2  UNL     1       6.080   3.799   4.474  0.00  0.00    +0.000 C 
ENDBRANCH   1   3
BRANCH   1   4
ATOM      4  C3  UNL     1       6.032   1.342   4.479  0.00  0.00    +0.000 C 
ATOM      5  C4  UNL     1       6.848   0.076   4.737  0.00  0.00    +0.000 C 
ENDBRANCH   1   4
BRANCH   1   6
ATOM      6  C5  UNL     1       7.100   2.529   6.314  0.00  0.00    +0.000 C 
ATOM      7  C6  UNL     1       5.847   2.802   7.147  0.00  0.00    +0.000 C 
ENDBRANCH   1   6
TORSDOF 3
ENDMDL
MODEL 7
REMARK VINA RESULT:    -3.081      1.774      3.210
REMARK INTER + INTRA:          -3.755
REMARK INTER:                  -3.554
REMARK INTRA:                  -0.201
REMARK UNBOUND:                -0.134
REMARK  Name = results/023d2b59-0b5a-42b5-9723-3156b85df557_ligand.pdb
REMARK  6 active torsions:
REMARK  status: ('A' for Active; 'I' for Inactive)
REMARK    1  A    between atoms: C1_1  and  C2_2
REMARK    2  A    between atoms: C2_2  and  N1_3
REMARK    3  A    between atoms: N1_3  and  C3_4
REMARK    4  A    between atoms: N1_3  and  C5_6
REMARK    5  A    between atoms: C3_4  and  C4_5
REMARK    6  A    between atoms: C5_6  and  C6_7
REMARK                            x       y       z     vdW  Elec       q    Type
REMARK                         _______ _______ _______ _____ _____    ______ ____
ROOT
ATOM      1  N1  UNL     1       6.945   2.469   4.691  0.00  0.00    +0.000 NA
ENDROOT
BRANCH   1   3
ATOM      2  C1  UNL     1       6.802   0.017   4.809  0.00  0.00    +0.000 C 
ATOM      3  C2  UNL     1       6.090   1.294   4.379  0.00  0.00    +0.000 C 
ENDBRANCH   1   3
BRANCH   1   4
ATOM      4  C3  UNL     1       7.421   2.447   6.093  0.00  0.00    +0.000 C 
ATOM      5  C4  UNL     1       6.401   3.095   7.030  0.00  0.00    +0.000 C 
ENDBRANCH   1   4
BRANCH   1   6
ATOM      6  C5  UNL     1       6.252   3.746   4.400  0.00  0.00    +0.000 C 
ATOM      7  C6  UNL     1       5.024   3.514   3.521  0.00  0.00    +0.000 C 
ENDBRANCH   1   6
TORSDOF 3
ENDMDL
MODEL 8
REMARK VINA RESULT:    -3.076      1.727      2.626
REMARK INTER + INTRA:          -3.749
REMARK INTER:                  -3.549
REMARK INTRA:                  -0.200
REMARK UNBOUND:                -0.134
REMARK  Name = results/023d2b59-0b5a-42b5-9723-3156b85df557_ligand.pdb
REMARK  6 active torsions:
REMARK  status: ('A' for Active; 'I' for Inactive)
REMARK    1  A    between atoms: C1_1  and  C2_2
REMARK    2  A    between atoms: C2_2  and  N1_3
REMARK    3  A    between atoms: N1_3  and  C3_4
REMARK    4  A    between atoms: N1_3  and  C5_6
REMARK    5  A    between atoms: C3_4  and  C4_5
REMARK    6  A    between atoms: C5_6  and  C6_7
REMARK                            x       y       z     vdW  Elec       q    Type
REMARK                         _______ _______ _______ _____ _____    ______ ____
ROOT
ATOM      1  N1  UNL     1       6.930   2.513   4.801  0.00  0.00    +0.000 NA
ENDROOT
BRANCH   1   3
ATOM      2  C1  UNL     1       6.176   2.895   7.111  0.00  0.00    +0.000 C 
ATOM      3  C2  UNL     1       7.334   2.440   6.230  0.00  0.00    +0.000 C 
ENDBRANCH   1   3
BRANCH   1   4
ATOM      4  C3  UNL     1       6.137   3.731   4.515  0.00  0.00    +0.000 C 
ATOM      5  C4  UNL     1       4.988   3.425   3.555  0.00  0.00    +0.000 C 
ENDBRANCH   1   4
BRANCH   1   6
ATOM      6  C5  UNL     1       6.189   1.303   4.377  0.00  0.00    +0.000 C 
ATOM      7  C6  UNL     1       6.923   0.033   4.806  0.00  0.00    +0.000 C 
ENDBRANCH   1   6
TORSDOF 3
ENDMDL
MODEL 9
REMARK VINA RESULT:    -2.970      1.445      2.620
REMARK INTER + INTRA:          -3.625
REMARK INTER:                  -3.414
REMARK INTRA:                  -0.211
REMARK UNBOUND:                -0.134
REMARK  Name = results/023d2b59-0b5a-42b5-9723-3156b85df557_ligand.pdb
REMARK  6 active torsions:
REMARK  status: ('A' for Active; 'I' for Inactive)
REMARK    1  A    between atoms: C1_1  and  C2_2
REMARK    2  A    between atoms: C2_2  and  N1_3
REMARK    3  A    between atoms: N1_3  and  C3_4
REMARK    4  A    between atoms: N1_3  and  C5_6
REMARK    5  A    between atoms: C3_4  and  C4_5
REMARK    6  A    between atoms: C5_6  and  C6_7
REMARK                            x       y       z     vdW  Elec       q    Type
REMARK                         _______ _______ _______ _____ _____    ______ ____
ROOT
ATOM      1  N1  UNL     1       5.576   1.749   5.273  0.00  0.00    +0.000 NA
ENDROOT
BRANCH   1   3
ATOM      2  C1  UNL     1       7.713   0.847   4.455  0.00  0.00    +0.000 C 
ATOM      3  C2  UNL     1       6.195   0.751   4.361  0.00  0.00    +0.000 C 
ENDBRANCH   1   3
BRANCH   1   4
ATOM      4  C3  UNL     1       4.720   2.709   4.539  0.00  0.00    +0.000 C 
ATOM      5  C4  UNL     1       5.499   3.974   4.179  0.00  0.00    +0.000 C 
ENDBRANCH   1   4
BRANCH   1   6
ATOM      6  C5  UNL     1       6.595   2.469   6.071  0.00  0.00    +0.000 C 
ATOM      7  C6  UNL     1       6.280   2.386   7.565  0.00  0.00    +0.000 C 
ENDBRANCH   1   6
TORSDOF 3
ENDMDL
