MODEL 1
REMARK VINA RESULT:    -2.947      0.000      0.000
REMARK INTER + INTRA:          -3.619
REMARK INTER:                  -3.463
REMARK INTRA:                  -0.156
REMARK UNBOUND:                -0.156
REMARK  Name = C:\DDRIVE\PROJECT\authml\backend\results\ligand_1764477909488.pdb
REMARK  6 active torsions:
REMARK  status: ('A' for Active; 'I' for Inactive)
REMARK    1  A    between atoms: C_1  and  C_2
REMARK    2  A    between atoms: C_2  and  N_3
REMARK    3  A    between atoms: N_3  and  C_4
REMARK    4  A    between atoms: N_3  and  C_6
REMARK    5  A    between atoms: C_4  and  C_5
REMARK    6  A    between atoms: C_6  and  C_7
REMARK                            x       y       z     vdW  Elec       q    Type
REMARK                         _______ _______ _______ _____ _____    ______ ____
ROOT
ATOM      1  N   UNL     1      -4.515  -3.240   2.189  0.00  0.00    +0.000 NA
ENDROOT
BRANCH   1   3
ATOM      2  C   UNL     1      -2.615  -2.901   3.776  0.00  0.00    +0.000 C 
ATOM      3  C   UNL     1      -3.610  -3.878   3.157  0.00  0.00    +0.000 C 
ENDBRANCH   1   3
BRANCH   1   4
ATOM      4  C   UNL     1      -4.631  -1.779   2.350  0.00  0.00    +0.000 C 
ATOM      5  C   UNL     1      -5.957  -1.250   2.897  0.00  0.00    +0.000 C 
ENDBRANCH   1   4
BRANCH   1   6
ATOM      6  C   UNL     1      -4.217  -3.605   0.796  0.00  0.00    +0.000 C 
ATOM      7  C   UNL     1      -3.571  -4.987   0.667  0.00  0.00    +0.000 C 
ENDBRANCH   1   6
TORSDOF 3
ENDMDL
MODEL 2
REMARK VINA RESULT:    -2.941      0.084      3.190
REMARK INTER + INTRA:          -3.612
REMARK INTER:                  -3.456
REMARK INTRA:                  -0.156
REMARK UNBOUND:                -0.156
REMARK  Name = C:\DDRIVE\PROJECT\authml\backend\results\ligand_1764477909488.pdb
REMARK  6 active torsions:
REMARK  status: ('A' for Active; 'I' for Inactive)
REMARK    1  A    between atoms: C_1  and  C_2
REMARK    2  A    between atoms: C_2  and  N_3
REMARK    3  A    between atoms: N_3  and  C_4
REMARK    4  A    between atoms: N_3  and  C_6
REMARK    5  A    between atoms: C_4  and  C_5
REMARK    6  A    between atoms: C_6  and  C_7
REMARK                            x       y       z     vdW  Elec       q    Type
REMARK                         _______ _______ _______ _____ _____    ______ ____
ROOT
ATOM      1  N   UNL     1      -4.515  -3.210   2.203  0.00  0.00    +0.000 NA
ENDROOT
BRANCH   1   3
ATOM      2  C   UNL     1      -3.533  -4.985   0.742  0.00  0.00    +0.000 C 
ATOM      3  C   UNL     1      -4.197  -3.613   0.825  0.00  0.00    +0.000 C 
ENDBRANCH   1   3
BRANCH   1   4
ATOM      4  C   UNL     1      -3.618  -3.790   3.219  0.00  0.00    +0.000 C 
ATOM      5  C   UNL     1      -2.556  -2.863   3.810  0.00  0.00    +0.000 C 
ENDBRANCH   1   4
BRANCH   1   6
ATOM      6  C   UNL     1      -4.636  -1.754   2.363  0.00  0.00    +0.000 C 
ATOM      7  C   UNL     1      -6.038  -1.315   2.793  0.00  0.00    +0.000 C 
ENDBRANCH   1   6
TORSDOF 3
ENDMDL
MODEL 3
REMARK VINA RESULT:    -2.869      0.250      3.187
REMARK INTER + INTRA:          -3.528
REMARK INTER:                  -3.378
REMARK INTRA:                  -0.150
REMARK UNBOUND:                -0.156
REMARK  Name = C:\DDRIVE\PROJECT\authml\backend\results\ligand_1764477909488.pdb
REMARK  6 active torsions:
REMARK  status: ('A' for Active; 'I' for Inactive)
REMARK    1  A    between atoms: C_1  and  C_2
REMARK    2  A    between atoms: C_2  and  N_3
REMARK    3  A    between atoms: N_3  and  C_4
REMARK    4  A    between atoms: N_3  and  C_6
REMARK    5  A    between atoms: C_4  and  C_5
REMARK    6  A    between atoms: C_6  and  C_7
REMARK                            x       y       z     vdW  Elec       q    Type
REMARK                         _______ _______ _______ _____ _____    ______ ____
ROOT
ATOM      1  N   UNL     1      -4.450  -3.207   2.137  0.00  0.00    +0.000 NA
ENDROOT
BRANCH   1   3
ATOM      2  C   UNL     1      -5.886  -1.270   2.795  0.00  0.00    +0.000 C 
ATOM      3  C   UNL     1      -4.505  -1.754   2.363  0.00  0.00    +0.000 C 
ENDBRANCH   1   3
BRANCH   1   4
ATOM      4  C   UNL     1      -4.470  -3.593   0.714  0.00  0.00    +0.000 C 
ATOM      5  C   UNL     1      -3.620  -4.799   0.315  0.00  0.00    +0.000 C 
ENDBRANCH   1   4
BRANCH   1   6
ATOM      6  C   UNL     1      -3.343  -3.858   2.854  0.00  0.00    +0.000 C 
ATOM      7  C   UNL     1      -2.600  -2.906   3.795  0.00  0.00    +0.000 C 
ENDBRANCH   1   6
TORSDOF 3
ENDMDL
MODEL 4
REMARK VINA RESULT:    -2.721      1.289      2.745
REMARK INTER + INTRA:          -3.354
REMARK INTER:                  -3.210
REMARK INTRA:                  -0.144
REMARK UNBOUND:                -0.156
REMARK  Name = C:\DDRIVE\PROJECT\authml\backend\results\ligand_1764477909488.pdb
REMARK  6 active torsions:
REMARK  status: ('A' for Active; 'I' for Inactive)
REMARK    1  A    between atoms: C_1  and  C_2
REMARK    2  A    between atoms: C_2  and  N_3
REMARK    3  A    between atoms: N_3  and  C_4
REMARK    4  A    between atoms: N_3  and  C_6
REMARK    5  A    between atoms: C_4  and  C_5
REMARK    6  A    between atoms: C_6  and  C_7
REMARK                            x       y       z     vdW  Elec       q    Type
REMARK                         _______ _______ _______ _____ _____    ______ ____
ROOT
ATOM      1  N   UNL     1      -3.853  -3.619   1.513  0.00  0.00    +0.000 NA
ENDROOT
BRANCH   1   3
ATOM      2  C   UNL     1      -3.132  -5.855   0.661  0.00  0.00    +0.000 C 
ATOM      3  C   UNL     1      -4.069  -5.073   1.577  0.00  0.00    +0.000 C 
ENDBRANCH   1   3
BRANCH   1   4
ATOM      4  C   UNL     1      -4.643  -2.942   0.468  0.00  0.00    +0.000 C 
ATOM      5  C   UNL     1      -4.991  -1.474   0.712  0.00  0.00    +0.000 C 
ENDBRANCH   1   4
BRANCH   1   6
ATOM      6  C   UNL     1      -4.009  -2.958   2.817  0.00  0.00    +0.000 C 
ATOM      7  C   UNL     1      -2.725  -2.972   3.650  0.00  0.00    +0.000 C 
ENDBRANCH   1   6
TORSDOF 3
ENDMDL
MODEL 5
REMARK VINA RESULT:    -2.702      1.259      2.631
REMARK INTER + INTRA:          -3.332
REMARK INTER:                  -3.180
REMARK INTRA:                  -0.152
REMARK UNBOUND:                -0.156
REMARK  Name = C:\DDRIVE\PROJECT\authml\backend\results\ligand_1764477909488.pdb
REMARK  6 active torsions:
REMARK  status: ('A' for Active; 'I' for Inactive)
REMARK    1  A    between atoms: C_1  and  C_2
REMARK    2  A    between atoms: C_2  and  N_3
REMARK    3  A    between atoms: N_3  and  C_4
REMARK    4  A    between atoms: N_3  and  C_6
REMARK    5  A    between atoms: C_4  and  C_5
REMARK    6  A    between atoms: C_6  and  C_7
REMARK                            x       y       z     vdW  Elec       q    Type
REMARK                         _______ _______ _______ _____ _____    ______ ____
ROOT
ATOM      1  N   UNL     1      -3.930  -3.517   1.304  0.00  0.00    +0.000 NA
ENDROOT
BRANCH   1   3
ATOM      2  C   UNL     1      -4.984  -1.346   0.655  0.00  0.00    +0.000 C 
ATOM      3  C   UNL     1      -5.170  -2.727   1.276  0.00  0.00    +0.000 C 
ENDBRANCH   1   3
BRANCH   1   4
ATOM      4  C   UNL     1      -3.576  -4.029   2.641  0.00  0.00    +0.000 C 
ATOM      5  C   UNL     1      -2.809  -3.079   3.561  0.00  0.00    +0.000 C 
ENDBRANCH   1   4
BRANCH   1   6
ATOM      6  C   UNL     1      -3.907  -4.588   0.297  0.00  0.00    +0.000 C 
ATOM      7  C   UNL     1      -3.151  -5.833   0.767  0.00  0.00    +0.000 C 
ENDBRANCH   1   6
TORSDOF 3
ENDMDL
MODEL 6
REMARK VINA RESULT:    -2.665      1.822      2.413
REMARK INTER + INTRA:          -3.288
REMARK INTER:                  -3.165
REMARK INTRA:                  -0.123
REMARK UNBOUND:                -0.156
REMARK  Name = C:\DDRIVE\PROJECT\authml\backend\results\ligand_1764477909488.pdb
REMARK  6 active torsions:
REMARK  status: ('A' for Active; 'I' for Inactive)
REMARK    1  A    between atoms: C_1  and  C_2
REMARK    2  A    between atoms: C_2  and  N_3
REMARK    3  A    between atoms: N_3  and  C_4
REMARK    4  A    between atoms: N_3  and  C_6
REMARK    5  A    between atoms: C_4  and  C_5
REMARK    6  A    between atoms: C_6  and  C_7
REMARK                            x       y       z     vdW  Elec       q    Type
REMARK                         _______ _______ _______ _____ _____    ______ ____
ROOT
ATOM      1  N   UNL     1      -3.840  -5.060   2.190  0.00  0.00    +0.000 NA
ENDROOT
BRANCH   1   3
ATOM      2  C   UNL     1      -2.812  -3.161   3.448  0.00  0.00    +0.000 C 
ATOM      3  C   UNL     1      -3.737  -3.598   2.316  0.00  0.00    +0.000 C 
ENDBRANCH   1   3
BRANCH   1   4
ATOM      4  C   UNL     1      -5.197  -5.587   2.424  0.00  0.00    +0.000 C 
ATOM      5  C   UNL     1      -6.193  -4.648   3.104  0.00  0.00    +0.000 C 
ENDBRANCH   1   4
BRANCH   1   6
ATOM      6  C   UNL     1      -3.276  -5.570   0.932  0.00  0.00    +0.000 C 
ATOM      7  C   UNL     1      -3.098  -7.090   0.931  0.00  0.00    +0.000 C 
ENDBRANCH   1   6
TORSDOF 3
ENDMDL
MODEL 7
REMARK VINA RESULT:    -2.587      1.247      3.530
REMARK INTER + INTRA:          -3.196
REMARK INTER:                  -3.017
REMARK INTRA:                  -0.180
REMARK UNBOUND:                -0.156
REMARK  Name = C:\DDRIVE\PROJECT\authml\backend\results\ligand_1764477909488.pdb
REMARK  6 active torsions:
REMARK  status: ('A' for Active; 'I' for Inactive)
REMARK    1  A    between atoms: C_1  and  C_2
REMARK    2  A    between atoms: C_2  and  N_3
REMARK    3  A    between atoms: N_3  and  C_4
REMARK    4  A    between atoms: N_3  and  C_6
REMARK    5  A    between atoms: C_4  and  C_5
REMARK    6  A    between atoms: C_6  and  C_7
REMARK                            x       y       z     vdW  Elec       q    Type
REMARK                         _______ _______ _______ _____ _____    ______ ____
ROOT
ATOM      1  N   UNL     1      -4.517  -3.813   2.016  0.00  0.00    +0.000 NA
ENDROOT
BRANCH   1   3
ATOM      2  C   UNL     1      -4.894  -2.048   0.287  0.00  0.00    +0.000 C 
ATOM      3  C   UNL     1      -4.307  -3.417   0.615  0.00  0.00    +0.000 C 
ENDBRANCH   1   3
BRANCH   1   4
ATOM      4  C   UNL     1      -3.947  -5.129   2.358  0.00  0.00    +0.000 C 
ATOM      5  C   UNL     1      -3.593  -6.051   1.192  0.00  0.00    +0.000 C 
ENDBRANCH   1   4
BRANCH   1   6
ATOM      6  C   UNL     1      -4.095  -2.780   2.974  0.00  0.00    +0.000 C 
ATOM      7  C   UNL     1      -2.720  -3.059   3.584  0.00  0.00    +0.000 C 
ENDBRANCH   1   6
TORSDOF 3
ENDMDL
MODEL 8
REMARK VINA RESULT:    -2.522      1.611      3.057
REMARK INTER + INTRA:          -3.120
REMARK INTER:                  -2.929
REMARK INTRA:                  -0.191
REMARK UNBOUND:                -0.156
REMARK  Name = C:\DDRIVE\PROJECT\authml\backend\results\ligand_1764477909488.pdb
REMARK  6 active torsions:
REMARK  status: ('A' for Active; 'I' for Inactive)
REMARK    1  A    between atoms: C_1  and  C_2
REMARK    2  A    between atoms: C_2  and  N_3
REMARK    3  A    between atoms: N_3  and  C_4
REMARK    4  A    between atoms: N_3  and  C_6
REMARK    5  A    between atoms: C_4  and  C_5
REMARK    6  A    between atoms: C_6  and  C_7
REMARK                            x       y       z     vdW  Elec       q    Type
REMARK                         _______ _______ _______ _____ _____    ______ ____
ROOT
ATOM      1  N   UNL     1      -4.597  -3.876   1.759  0.00  0.00    +0.000 NA
ENDROOT
BRANCH   1   3
ATOM      2  C   UNL     1      -5.010  -1.543   0.963  0.00  0.00    +0.000 C 
ATOM      3  C   UNL     1      -4.577  -2.963   0.607  0.00  0.00    +0.000 C 
ENDBRANCH   1   3
BRANCH   1   4
ATOM      4  C   UNL     1      -3.279  -4.074   2.390  0.00  0.00    +0.000 C 
ATOM      5  C   UNL     1      -2.939  -3.167   3.573  0.00  0.00    +0.000 C 
ENDBRANCH   1   4
BRANCH   1   6
ATOM      6  C   UNL     1      -5.621  -3.524   2.754  0.00  0.00    +0.000 C 
ATOM      7  C   UNL     1      -6.628  -4.651   2.998  0.00  0.00    +0.000 C 
ENDBRANCH   1   6
TORSDOF 3
ENDMDL
MODEL 9
REMARK VINA RESULT:    -2.398     14.226     15.403
REMARK INTER + INTRA:          -2.974
REMARK INTER:                  -2.818
REMARK INTRA:                  -0.157
REMARK UNBOUND:                -0.156
REMARK  Name = C:\DDRIVE\PROJECT\authml\backend\results\ligand_1764477909488.pdb
REMARK  6 active torsions:
REMARK  status: ('A' for Active; 'I' for Inactive)
REMARK    1  A    between atoms: C_1  and  C_2
REMARK    2  A    between atoms: C_2  and  N_3
REMARK    3  A    between atoms: N_3  and  C_4
REMARK    4  A    between atoms: N_3  and  C_6
REMARK    5  A    between atoms: C_4  and  C_5
REMARK    6  A    between atoms: C_6  and  C_7
REMARK                            x       y       z     vdW  Elec       q    Type
REMARK                         _______ _______ _______ _____ _____    ______ ____
ROOT
ATOM      1  N   UNL     1      10.061  -4.674  -1.883  0.00  0.00    +0.000 NA
ENDROOT
BRANCH   1   3
ATOM      2  C   UNL     1       8.854  -6.158  -3.491  0.00  0.00    +0.000 C 
ATOM      3  C   UNL     1       8.784  -5.323  -2.216  0.00  0.00    +0.000 C 
ENDBRANCH   1   3
BRANCH   1   4
ATOM      4  C   UNL     1      10.787  -4.145  -3.053  0.00  0.00    +0.000 C 
ATOM      5  C   UNL     1      12.272  -4.489  -3.156  0.00  0.00    +0.000 C 
ENDBRANCH   1   4
BRANCH   1   6
ATOM      6  C   UNL     1       9.932  -3.658  -0.828  0.00  0.00    +0.000 C 
ATOM      7  C   UNL     1       9.982  -2.227  -1.369  0.00  0.00    +0.000 C 
ENDBRANCH   1   6
TORSDOF 3
ENDMDL
