MODEL 1
REMARK VINA RESULT:    -3.929      0.000      0.000
REMARK INTER + INTRA:          -7.564
REMARK INTER:                  -6.455
REMARK INTRA:                  -1.109
REMARK UNBOUND:                -1.109
REMARK  Name = C:\DDRIVE\PROJECT\rmpr\authml\backend\results\ligand_1764508811630.pdb
REMARK  12 active torsions:
REMARK  status: ('A' for Active; 'I' for Inactive)
REMARK    1  A    between atoms: C_1  and  C_2
REMARK    2  A    between atoms: C_2  and  O_3
REMARK    3  A    between atoms: O_3  and  C_4
REMARK    4  A    between atoms: C_4  and  C_6
REMARK    5  A    between atoms: C_6  and  N_7
REMARK    6  A    between atoms: N_7  and  C_8
REMARK    7  A    between atoms: C_8  and  C_9
REMARK    8  A    between atoms: C_9  and  C_10
REMARK    9  A    between atoms: C_10  and  C_11
REMARK   10  A    between atoms: C_11  and  C_12
REMARK   11  A    between atoms: C_12  and  S_13
REMARK   12  A    between atoms: S_13  and  C_14
REMARK                            x       y       z     vdW  Elec       q    Type
REMARK                         _______ _______ _______ _____ _____    ______ ____
ROOT
ATOM      1  C   UNL     1       9.530  -5.532  -3.343  0.00  0.00    +0.000 C 
ENDROOT
BRANCH   1   2
ATOM      2  C   UNL     1       8.839  -5.736  -1.973  0.00  0.00    +0.000 C 
BRANCH   2   3
ATOM      3  C   UNL     1       9.148  -7.144  -1.407  0.00  0.00    +0.000 C 
BRANCH   3   4
ATOM      4  C   UNL     1       8.470  -7.466  -0.058  0.00  0.00    +0.000 C 
BRANCH   4   5
ATOM      5  C   UNL     1       7.760  -6.218   0.511  0.00  0.00    +0.000 C 
BRANCH   5   6
ATOM      6  N   UNL     1       8.593  -5.484   1.470  0.00  0.00    +0.000 NA
ATOM      7  H   UNL     1       8.436  -4.477   1.392  0.00  0.00    +0.000 HD
BRANCH   6   8
ATOM      8  C   UNL     1       8.286  -5.898   2.861  0.00  0.00    +0.000 C 
BRANCH   8   9
ATOM      9  C   UNL     1       7.709  -4.736   3.676  0.00  0.00    +0.000 C 
ATOM     10  O   UNL     1       6.907  -4.851   4.595  0.00  0.00    +0.000 OA
BRANCH   9  11
ATOM     11  O   UNL     1       8.280  -3.559   3.278  0.00  0.00    +0.000 OA
BRANCH  11  13
ATOM     12  C   UNL     1       8.993  -1.359   4.028  0.00  0.00    +0.000 C 
ATOM     13  C   UNL     1       9.039  -2.856   4.276  0.00  0.00    +0.000 C 
ENDBRANCH  11  13
ENDBRANCH   9  11
ENDBRANCH   8   9
ENDBRANCH   6   8
ENDBRANCH   5   6
ENDBRANCH   4   5
ENDBRANCH   3   4
ENDBRANCH   2   3
ENDBRANCH   1   2
BRANCH   1  14
ATOM     14  S   UNL     1      10.850  -4.222  -3.342  0.00  0.00    +0.000 S 
BRANCH  14  15
ATOM     15  C   UNL     1      10.914  -3.714  -1.610  0.00  0.00    +0.000 A 
ATOM     16  C   UNL     1      10.268  -2.532  -1.215  0.00  0.00    +0.000 A 
ATOM     17  N   UNL     1       9.626  -1.503  -1.851  0.00  0.00    +0.000 N 
ATOM     18  C   UNL     1       9.352  -0.547  -0.903  0.00  0.00    +0.000 A 
ATOM     19  N   UNL     1       9.649  -0.960   0.311  0.00  0.00    +0.000 NA
ATOM     20  C   UNL     1      10.244  -2.174   0.121  0.00  0.00    +0.000 A 
ATOM     21  N   UNL     1      10.797  -2.908   1.100  0.00  0.00    +0.000 NA
ATOM     22  C   UNL     1      11.513  -3.966   0.682  0.00  0.00    +0.000 A 
ATOM     23  N   UNL     1      11.645  -4.379  -0.625  0.00  0.00    +0.000 N 
ATOM     24  O   UNL     1      12.457  -5.322  -0.883  0.00  0.00    +0.000 OA
ATOM     25  H   UNL     1       9.495  -1.395  -2.844  0.00  0.00    +0.000 HD
ENDBRANCH  14  15
ENDBRANCH   1  14
TORSDOF 11
ENDMDL
MODEL 2
REMARK VINA RESULT:    -3.905      3.729      5.205
REMARK INTER + INTRA:          -7.525
REMARK INTER:                  -6.895
REMARK INTRA:                  -0.631
REMARK UNBOUND:                -1.109
REMARK  Name = C:\DDRIVE\PROJECT\rmpr\authml\backend\results\ligand_1764508811630.pdb
REMARK  12 active torsions:
REMARK  status: ('A' for Active; 'I' for Inactive)
REMARK    1  A    between atoms: C_1  and  C_2
REMARK    2  A    between atoms: C_2  and  O_3
REMARK    3  A    between atoms: O_3  and  C_4
REMARK    4  A    between atoms: C_4  and  C_6
REMARK    5  A    between atoms: C_6  and  N_7
REMARK    6  A    between atoms: N_7  and  C_8
REMARK    7  A    between atoms: C_8  and  C_9
REMARK    8  A    between atoms: C_9  and  C_10
REMARK    9  A    between atoms: C_10  and  C_11
REMARK   10  A    between atoms: C_11  and  C_12
REMARK   11  A    between atoms: C_12  and  S_13
REMARK   12  A    between atoms: S_13  and  C_14
REMARK                            x       y       z     vdW  Elec       q    Type
REMARK                         _______ _______ _______ _____ _____    ______ ____
ROOT
ATOM      1  C   UNL     1       8.230  -4.508   3.165  0.00  0.00    +0.000 C 
ENDROOT
BRANCH   1   2
ATOM      2  C   UNL     1       8.532  -3.361   4.158  0.00  0.00    +0.000 C 
BRANCH   2   3
ATOM      3  C   UNL     1       7.720  -3.537   5.464  0.00  0.00    +0.000 C 
BRANCH   3   4
ATOM      4  C   UNL     1       6.402  -4.326   5.308  0.00  0.00    +0.000 C 
BRANCH   4   5
ATOM      5  C   UNL     1       6.041  -5.055   6.621  0.00  0.00    +0.000 C 
BRANCH   5   6
ATOM      6  N   UNL     1       4.623  -4.912   6.973  0.00  0.00    +0.000 NA
ATOM      7  H   UNL     1       4.453  -5.229   7.930  0.00  0.00    +0.000 HD
BRANCH   6   8
ATOM      8  C   UNL     1       4.193  -3.497   6.865  0.00  0.00    +0.000 C 
BRANCH   8   9
ATOM      9  C   UNL     1       4.542  -2.708   8.131  0.00  0.00    +0.000 C 
ATOM     10  O   UNL     1       4.480  -3.147   9.273  0.00  0.00    +0.000 OA
BRANCH   9  11
ATOM     11  O   UNL     1       5.006  -1.467   7.794  0.00  0.00    +0.000 OA
BRANCH  11  13
ATOM     12  C   UNL     1       3.588   0.010   6.484  0.00  0.00    +0.000 C 
ATOM     13  C   UNL     1       4.702  -1.021   6.461  0.00  0.00    +0.000 C 
ENDBRANCH  11  13
ENDBRANCH   9  11
ENDBRANCH   8   9
ENDBRANCH   6   8
ENDBRANCH   5   6
ENDBRANCH   4   5
ENDBRANCH   3   4
ENDBRANCH   2   3
ENDBRANCH   1   2
BRANCH   1  14
ATOM     14  S   UNL     1       9.742  -5.258   2.384  0.00  0.00    +0.000 S 
BRANCH  14  15
ATOM     15  C   UNL     1       9.447  -5.015   0.618  0.00  0.00    +0.000 A 
ATOM     16  C   UNL     1       9.975  -3.882  -0.020  0.00  0.00    +0.000 A 
ATOM     17  N   UNL     1      10.629  -2.747   0.378  0.00  0.00    +0.000 N 
ATOM     18  C   UNL     1      10.737  -1.932  -0.724  0.00  0.00    +0.000 A 
ATOM     19  N   UNL     1      10.322  -2.532  -1.819  0.00  0.00    +0.000 NA
ATOM     20  C   UNL     1       9.821  -3.726  -1.386  0.00  0.00    +0.000 A 
ATOM     21  N   UNL     1       9.199  -4.617  -2.172  0.00  0.00    +0.000 NA
ATOM     22  C   UNL     1       8.596  -5.627  -1.522  0.00  0.00    +0.000 A 
ATOM     23  N   UNL     1       8.642  -5.846  -0.162  0.00  0.00    +0.000 N 
ATOM     24  O   UNL     1       7.920  -6.770   0.326  0.00  0.00    +0.000 OA
ATOM     25  H   UNL     1      10.871  -2.487   1.321  0.00  0.00    +0.000 HD
ENDBRANCH  14  15
ENDBRANCH   1  14
TORSDOF 11
ENDMDL
MODEL 3
REMARK VINA RESULT:    -3.882      2.105      4.473
REMARK INTER + INTRA:          -7.488
REMARK INTER:                  -6.374
REMARK INTRA:                  -1.113
REMARK UNBOUND:                -1.109
REMARK  Name = C:\DDRIVE\PROJECT\rmpr\authml\backend\results\ligand_1764508811630.pdb
REMARK  12 active torsions:
REMARK  status: ('A' for Active; 'I' for Inactive)
REMARK    1  A    between atoms: C_1  and  C_2
REMARK    2  A    between atoms: C_2  and  O_3
REMARK    3  A    between atoms: O_3  and  C_4
REMARK    4  A    between atoms: C_4  and  C_6
REMARK    5  A    between atoms: C_6  and  N_7
REMARK    6  A    between atoms: N_7  and  C_8
REMARK    7  A    between atoms: C_8  and  C_9
REMARK    8  A    between atoms: C_9  and  C_10
REMARK    9  A    between atoms: C_10  and  C_11
REMARK   10  A    between atoms: C_11  and  C_12
REMARK   11  A    between atoms: C_12  and  S_13
REMARK   12  A    between atoms: S_13  and  C_14
REMARK                            x       y       z     vdW  Elec       q    Type
REMARK                         _______ _______ _______ _____ _____    ______ ____
ROOT
ATOM      1  C   UNL     1       9.700  -1.281  -0.551  0.00  0.00    +0.000 C 
ENDROOT
BRANCH   1   2
ATOM      2  C   UNL     1      10.123   0.097   0.014  0.00  0.00    +0.000 C 
BRANCH   2   3
ATOM      3  C   UNL     1       9.947   0.138   1.551  0.00  0.00    +0.000 C 
BRANCH   3   4
ATOM      4  C   UNL     1       8.752  -0.678   2.090  0.00  0.00    +0.000 C 
BRANCH   4   5
ATOM      5  C   UNL     1       9.180  -1.551   3.290  0.00  0.00    +0.000 C 
BRANCH   5   6
ATOM      6  N   UNL     1       8.736  -2.943   3.160  0.00  0.00    +0.000 NA
ATOM      7  H   UNL     1       9.276  -3.431   2.441  0.00  0.00    +0.000 HD
BRANCH   6   8
ATOM      8  C   UNL     1       8.901  -3.671   4.442  0.00  0.00    +0.000 C 
BRANCH   8   9
ATOM      9  C   UNL     1       8.048  -4.943   4.477  0.00  0.00    +0.000 C 
ATOM     10  O   UNL     1       8.483  -6.085   4.400  0.00  0.00    +0.000 OA
BRANCH   9  11
ATOM     11  O   UNL     1       6.736  -4.618   4.687  0.00  0.00    +0.000 OA
BRANCH  11  13
ATOM     12  C   UNL     1       4.981  -3.923   6.219  0.00  0.00    +0.000 C 
ATOM     13  C   UNL     1       6.457  -3.851   5.870  0.00  0.00    +0.000 C 
ENDBRANCH  11  13
ENDBRANCH   9  11
ENDBRANCH   8   9
ENDBRANCH   6   8
ENDBRANCH   5   6
ENDBRANCH   4   5
ENDBRANCH   3   4
ENDBRANCH   2   3
ENDBRANCH   1   2
BRANCH   1  14
ATOM     14  S   UNL     1      11.089  -2.511  -0.676  0.00  0.00    +0.000 S 
BRANCH  14  15
ATOM     15  C   UNL     1      10.287  -3.952  -1.412  0.00  0.00    +0.000 A 
ATOM     16  C   UNL     1       9.503  -4.792  -0.605  0.00  0.00    +0.000 A 
ATOM     17  N   UNL     1       9.231  -4.894   0.733  0.00  0.00    +0.000 N 
ATOM     18  C   UNL     1       8.506  -6.047   0.914  0.00  0.00    +0.000 A 
ATOM     19  N   UNL     1       8.182  -6.607  -0.232  0.00  0.00    +0.000 NA
ATOM     20  C   UNL     1       8.821  -5.853  -1.174  0.00  0.00    +0.000 A 
ATOM     21  N   UNL     1       8.843  -6.136  -2.485  0.00  0.00    +0.000 NA
ATOM     22  C   UNL     1       9.696  -5.395  -3.213  0.00  0.00    +0.000 A 
ATOM     23  N   UNL     1      10.459  -4.352  -2.738  0.00  0.00    +0.000 N 
ATOM     24  O   UNL     1      11.315  -3.825  -3.515  0.00  0.00    +0.000 OA
ATOM     25  H   UNL     1       9.599  -4.314   1.470  0.00  0.00    +0.000 HD
ENDBRANCH  14  15
ENDBRANCH   1  14
TORSDOF 11
ENDMDL
MODEL 4
REMARK VINA RESULT:    -3.871      2.927      3.785
REMARK INTER + INTRA:          -7.470
REMARK INTER:                  -6.916
REMARK INTRA:                  -0.553
REMARK UNBOUND:                -1.109
REMARK  Name = C:\DDRIVE\PROJECT\rmpr\authml\backend\results\ligand_1764508811630.pdb
REMARK  12 active torsions:
REMARK  status: ('A' for Active; 'I' for Inactive)
REMARK    1  A    between atoms: C_1  and  C_2
REMARK    2  A    between atoms: C_2  and  O_3
REMARK    3  A    between atoms: O_3  and  C_4
REMARK    4  A    between atoms: C_4  and  C_6
REMARK    5  A    between atoms: C_6  and  N_7
REMARK    6  A    between atoms: N_7  and  C_8
REMARK    7  A    between atoms: C_8  and  C_9
REMARK    8  A    between atoms: C_9  and  C_10
REMARK    9  A    between atoms: C_10  and  C_11
REMARK   10  A    between atoms: C_11  and  C_12
REMARK   11  A    between atoms: C_12  and  S_13
REMARK   12  A    between atoms: S_13  and  C_14
REMARK                            x       y       z     vdW  Elec       q    Type
REMARK                         _______ _______ _______ _____ _____    ______ ____
ROOT
ATOM      1  C   UNL     1       8.208  -6.226  -0.125  0.00  0.00    +0.000 C 
ENDROOT
BRANCH   1   2
ATOM      2  C   UNL     1       7.502  -6.601   1.201  0.00  0.00    +0.000 C 
BRANCH   2   3
ATOM      3  C   UNL     1       8.218  -5.947   2.407  0.00  0.00    +0.000 C 
BRANCH   3   4
ATOM      4  C   UNL     1       7.478  -4.743   3.029  0.00  0.00    +0.000 C 
BRANCH   4   5
ATOM      5  C   UNL     1       7.341  -4.913   4.558  0.00  0.00    +0.000 C 
BRANCH   5   6
ATOM      6  N   UNL     1       6.079  -4.370   5.073  0.00  0.00    +0.000 NA
ATOM      7  H   UNL     1       5.283  -4.911   4.727  0.00  0.00    +0.000 HD
BRANCH   6   8
ATOM      8  C   UNL     1       6.057  -4.403   6.556  0.00  0.00    +0.000 C 
BRANCH   8   9
ATOM      9  C   UNL     1       4.879  -3.600   7.116  0.00  0.00    +0.000 C 
ATOM     10  O   UNL     1       4.147  -3.966   8.027  0.00  0.00    +0.000 OA
BRANCH   9  11
ATOM     11  O   UNL     1       4.813  -2.379   6.502  0.00  0.00    +0.000 OA
BRANCH  11  13
ATOM     12  C   UNL     1       3.617  -0.265   6.419  0.00  0.00    +0.000 C 
ATOM     13  C   UNL     1       4.296  -1.300   7.298  0.00  0.00    +0.000 C 
ENDBRANCH  11  13
ENDBRANCH   9  11
ENDBRANCH   8   9
ENDBRANCH   6   8
ENDBRANCH   5   6
ENDBRANCH   4   5
ENDBRANCH   3   4
ENDBRANCH   2   3
ENDBRANCH   1   2
BRANCH   1  14
ATOM     14  S   UNL     1      10.042  -5.960   0.039  0.00  0.00    +0.000 S 
BRANCH  14  15
ATOM     15  C   UNL     1      10.293  -4.369  -0.779  0.00  0.00    +0.000 A 
ATOM     16  C   UNL     1      10.293  -3.193  -0.013  0.00  0.00    +0.000 A 
ATOM     17  N   UNL     1      10.030  -2.870   1.291  0.00  0.00    +0.000 N 
ATOM     18  C   UNL     1      10.045  -1.499   1.382  0.00  0.00    +0.000 A 
ATOM     19  N   UNL     1      10.437  -0.938   0.258  0.00  0.00    +0.000 NA
ATOM     20  C   UNL     1      10.563  -1.978  -0.617  0.00  0.00    +0.000 A 
ATOM     21  N   UNL     1      10.850  -1.841  -1.921  0.00  0.00    +0.000 NA
ATOM     22  C   UNL     1      10.721  -2.961  -2.653  0.00  0.00    +0.000 A 
ATOM     23  N   UNL     1      10.407  -4.209  -2.161  0.00  0.00    +0.000 N 
ATOM     24  O   UNL     1      10.196  -5.150  -2.988  0.00  0.00    +0.000 OA
ATOM     25  H   UNL     1       9.745  -3.501   2.024  0.00  0.00    +0.000 HD
ENDBRANCH  14  15
ENDBRANCH   1  14
TORSDOF 11
ENDMDL
MODEL 5
REMARK VINA RESULT:    -3.857      3.552      5.057
REMARK INTER + INTRA:          -7.447
REMARK INTER:                  -6.931
REMARK INTRA:                  -0.516
REMARK UNBOUND:                -1.109
REMARK  Name = C:\DDRIVE\PROJECT\rmpr\authml\backend\results\ligand_1764508811630.pdb
REMARK  12 active torsions:
REMARK  status: ('A' for Active; 'I' for Inactive)
REMARK    1  A    between atoms: C_1  and  C_2
REMARK    2  A    between atoms: C_2  and  O_3
REMARK    3  A    between atoms: O_3  and  C_4
REMARK    4  A    between atoms: C_4  and  C_6
REMARK    5  A    between atoms: C_6  and  N_7
REMARK    6  A    between atoms: N_7  and  C_8
REMARK    7  A    between atoms: C_8  and  C_9
REMARK    8  A    between atoms: C_9  and  C_10
REMARK    9  A    between atoms: C_10  and  C_11
REMARK   10  A    between atoms: C_11  and  C_12
REMARK   11  A    between atoms: C_12  and  S_13
REMARK   12  A    between atoms: S_13  and  C_14
REMARK                            x       y       z     vdW  Elec       q    Type
REMARK                         _______ _______ _______ _____ _____    ______ ____
ROOT
ATOM      1  C   UNL     1       8.300  -5.372   2.027  0.00  0.00    +0.000 C 
ENDROOT
BRANCH   1   2
ATOM      2  C   UNL     1       7.204  -5.073   3.078  0.00  0.00    +0.000 C 
BRANCH   2   3
ATOM      3  C   UNL     1       7.836  -4.612   4.414  0.00  0.00    +0.000 C 
BRANCH   3   4
ATOM      4  C   UNL     1       6.839  -4.031   5.439  0.00  0.00    +0.000 C 
BRANCH   4   5
ATOM      5  C   UNL     1       6.151  -5.161   6.236  0.00  0.00    +0.000 C 
BRANCH   5   6
ATOM      6  N   UNL     1       4.831  -4.768   6.744  0.00  0.00    +0.000 NA
ATOM      7  H   UNL     1       4.753  -4.970   7.744  0.00  0.00    +0.000 HD
BRANCH   6   8
ATOM      8  C   UNL     1       4.597  -3.318   6.541  0.00  0.00    +0.000 C 
BRANCH   8   9
ATOM      9  C   UNL     1       4.325  -2.603   7.868  0.00  0.00    +0.000 C 
ATOM     10  O   UNL     1       4.513  -3.084   8.978  0.00  0.00    +0.000 OA
BRANCH   9  11
ATOM     11  O   UNL     1       3.912  -1.321   7.630  0.00  0.00    +0.000 OA
BRANCH  11  13
ATOM     12  C   UNL     1       4.546   0.466   6.108  0.00  0.00    +0.000 C 
ATOM     13  C   UNL     1       3.909  -0.905   6.254  0.00  0.00    +0.000 C 
ENDBRANCH  11  13
ENDBRANCH   9  11
ENDBRANCH   8   9
ENDBRANCH   6   8
ENDBRANCH   5   6
ENDBRANCH   4   5
ENDBRANCH   3   4
ENDBRANCH   2   3
ENDBRANCH   1   2
BRANCH   1  14
ATOM     14  S   UNL     1       9.890  -4.446   2.300  0.00  0.00    +0.000 S 
BRANCH  14  15
ATOM     15  C   UNL     1       9.997  -3.388   0.841  0.00  0.00    +0.000 A 
ATOM     16  C   UNL     1      10.154  -3.973  -0.425  0.00  0.00    +0.000 A 
ATOM     17  N   UNL     1      10.372  -5.238  -0.902  0.00  0.00    +0.000 N 
ATOM     18  C   UNL     1      10.602  -5.129  -2.253  0.00  0.00    +0.000 A 
ATOM     19  N   UNL     1      10.406  -3.902  -2.686  0.00  0.00    +0.000 NA
ATOM     20  C   UNL     1      10.159  -3.176  -1.557  0.00  0.00    +0.000 A 
ATOM     21  N   UNL     1      10.001  -1.844  -1.531  0.00  0.00    +0.000 NA
ATOM     22  C   UNL     1       9.978  -1.297  -0.303  0.00  0.00    +0.000 A 
ATOM     23  N   UNL     1      10.019  -1.992   0.885  0.00  0.00    +0.000 N 
ATOM     24  O   UNL     1      10.117  -1.335   1.968  0.00  0.00    +0.000 OA
ATOM     25  H   UNL     1      10.480  -6.079  -0.358  0.00  0.00    +0.000 HD
ENDBRANCH  14  15
ENDBRANCH   1  14
TORSDOF 11
ENDMDL
MODEL 6
REMARK VINA RESULT:    -3.826     15.130     16.705
REMARK INTER + INTRA:          -7.396
REMARK INTER:                  -6.806
REMARK INTRA:                  -0.590
REMARK UNBOUND:                -1.109
REMARK  Name = C:\DDRIVE\PROJECT\rmpr\authml\backend\results\ligand_1764508811630.pdb
REMARK  12 active torsions:
REMARK  status: ('A' for Active; 'I' for Inactive)
REMARK    1  A    between atoms: C_1  and  C_2
REMARK    2  A    between atoms: C_2  and  O_3
REMARK    3  A    between atoms: O_3  and  C_4
REMARK    4  A    between atoms: C_4  and  C_6
REMARK    5  A    between atoms: C_6  and  N_7
REMARK    6  A    between atoms: N_7  and  C_8
REMARK    7  A    between atoms: C_8  and  C_9
REMARK    8  A    between atoms: C_9  and  C_10
REMARK    9  A    between atoms: C_10  and  C_11
REMARK   10  A    between atoms: C_11  and  C_12
REMARK   11  A    between atoms: C_12  and  S_13
REMARK   12  A    between atoms: S_13  and  C_14
REMARK                            x       y       z     vdW  Elec       q    Type
REMARK                         _______ _______ _______ _____ _____    ______ ____
ROOT
ATOM      1  C   UNL     1      -5.587  -0.883  -0.271  0.00  0.00    +0.000 C 
ENDROOT
BRANCH   1   2
ATOM      2  C   UNL     1      -4.671  -1.674   0.693  0.00  0.00    +0.000 C 
BRANCH   2   3
ATOM      3  C   UNL     1      -5.285  -1.726   2.113  0.00  0.00    +0.000 C 
BRANCH   3   4
ATOM      4  C   UNL     1      -5.190  -3.099   2.813  0.00  0.00    +0.000 C 
BRANCH   4   5
ATOM      5  C   UNL     1      -3.728  -3.423   3.190  0.00  0.00    +0.000 C 
BRANCH   5   6
ATOM      6  N   UNL     1      -3.141  -4.458   2.331  0.00  0.00    +0.000 NA
ATOM      7  H   UNL     1      -2.313  -4.867   2.770  0.00  0.00    +0.000 HD
BRANCH   6   8
ATOM      8  C   UNL     1      -4.117  -5.543   2.070  0.00  0.00    +0.000 C 
BRANCH   8   9
ATOM      9  C   UNL     1      -3.447  -6.753   1.412  0.00  0.00    +0.000 C 
ATOM     10  O   UNL     1      -3.695  -7.924   1.672  0.00  0.00    +0.000 OA
BRANCH   9  11
ATOM     11  O   UNL     1      -2.585  -6.333   0.436  0.00  0.00    +0.000 OA
BRANCH  11  13
ATOM     12  C   UNL     1      -2.099  -6.466  -1.942  0.00  0.00    +0.000 C 
ATOM     13  C   UNL     1      -3.146  -6.186  -0.880  0.00  0.00    +0.000 C 
ENDBRANCH  11  13
ENDBRANCH   9  11
ENDBRANCH   8   9
ENDBRANCH   6   8
ENDBRANCH   5   6
ENDBRANCH   4   5
ENDBRANCH   3   4
ENDBRANCH   2   3
ENDBRANCH   1   2
BRANCH   1  14
ATOM     14  S   UNL     1      -7.397  -0.985   0.142  0.00  0.00    +0.000 S 
BRANCH  14  15
ATOM     15  C   UNL     1      -7.808   0.717   0.583  0.00  0.00    +0.000 A 
ATOM     16  C   UNL     1      -8.308   0.997   1.864  0.00  0.00    +0.000 A 
ATOM     17  N   UNL     1      -8.706   0.258   2.946  0.00  0.00    +0.000 N 
ATOM     18  C   UNL     1      -9.259   1.129   3.853  0.00  0.00    +0.000 A 
ATOM     19  N   UNL     1      -9.112   2.383   3.481  0.00  0.00    +0.000 NA
ATOM     20  C   UNL     1      -8.551   2.306   2.238  0.00  0.00    +0.000 A 
ATOM     21  N   UNL     1      -8.321   3.364   1.444  0.00  0.00    +0.000 NA
ATOM     22  C   UNL     1      -7.962   3.062   0.185  0.00  0.00    +0.000 A 
ATOM     23  N   UNL     1      -7.743   1.793  -0.305  0.00  0.00    +0.000 N 
ATOM     24  O   UNL     1      -7.531   1.653  -1.550  0.00  0.00    +0.000 OA
ATOM     25  H   UNL     1      -8.720  -0.747   3.019  0.00  0.00    +0.000 HD
ENDBRANCH  14  15
ENDBRANCH   1  14
TORSDOF 11
ENDMDL
MODEL 7
REMARK VINA RESULT:    -3.793      2.884      4.022
REMARK INTER + INTRA:          -7.342
REMARK INTER:                  -6.701
REMARK INTRA:                  -0.640
REMARK UNBOUND:                -1.109
REMARK  Name = C:\DDRIVE\PROJECT\rmpr\authml\backend\results\ligand_1764508811630.pdb
REMARK  12 active torsions:
REMARK  status: ('A' for Active; 'I' for Inactive)
REMARK    1  A    between atoms: C_1  and  C_2
REMARK    2  A    between atoms: C_2  and  O_3
REMARK    3  A    between atoms: O_3  and  C_4
REMARK    4  A    between atoms: C_4  and  C_6
REMARK    5  A    between atoms: C_6  and  N_7
REMARK    6  A    between atoms: N_7  and  C_8
REMARK    7  A    between atoms: C_8  and  C_9
REMARK    8  A    between atoms: C_9  and  C_10
REMARK    9  A    between atoms: C_10  and  C_11
REMARK   10  A    between atoms: C_11  and  C_12
REMARK   11  A    between atoms: C_12  and  S_13
REMARK   12  A    between atoms: S_13  and  C_14
REMARK                            x       y       z     vdW  Elec       q    Type
REMARK                         _______ _______ _______ _____ _____    ______ ____
ROOT
ATOM      1  C   UNL     1       8.113  -6.080   0.018  0.00  0.00    +0.000 C 
ENDROOT
BRANCH   1   2
ATOM      2  C   UNL     1       7.592  -6.270   1.463  0.00  0.00    +0.000 C 
BRANCH   2   3
ATOM      3  C   UNL     1       8.218  -5.221   2.414  0.00  0.00    +0.000 C 
BRANCH   3   4
ATOM      4  C   UNL     1       7.351  -4.852   3.637  0.00  0.00    +0.000 C 
BRANCH   4   5
ATOM      5  C   UNL     1       8.171  -4.047   4.668  0.00  0.00    +0.000 C 
BRANCH   5   6
ATOM      6  N   UNL     1       7.710  -4.262   6.045  0.00  0.00    +0.000 NA
ATOM      7  H   UNL     1       7.070  -3.519   6.333  0.00  0.00    +0.000 HD
BRANCH   6   8
ATOM      8  C   UNL     1       7.005  -5.561   6.169  0.00  0.00    +0.000 C 
BRANCH   8   9
ATOM      9  C   UNL     1       5.679  -5.408   6.920  0.00  0.00    +0.000 C 
ATOM     10  O   UNL     1       4.874  -4.501   6.750  0.00  0.00    +0.000 OA
BRANCH   9  11
ATOM     11  O   UNL     1       5.490  -6.476   7.753  0.00  0.00    +0.000 OA
BRANCH  11  13
ATOM     12  C   UNL     1       6.224  -5.595   9.896  0.00  0.00    +0.000 C 
ATOM     13  C   UNL     1       6.453  -6.630   8.809  0.00  0.00    +0.000 C 
ENDBRANCH  11  13
ENDBRANCH   9  11
ENDBRANCH   8   9
ENDBRANCH   6   8
ENDBRANCH   5   6
ENDBRANCH   4   5
ENDBRANCH   3   4
ENDBRANCH   2   3
ENDBRANCH   1   2
BRANCH   1  14
ATOM     14  S   UNL     1       9.967  -6.055  -0.126  0.00  0.00    +0.000 S 
BRANCH  14  15
ATOM     15  C   UNL     1      10.267  -4.666  -1.241  0.00  0.00    +0.000 A 
ATOM     16  C   UNL     1      10.372  -3.369  -0.715  0.00  0.00    +0.000 A 
ATOM     17  N   UNL     1      10.194  -2.790   0.513  0.00  0.00    +0.000 N 
ATOM     18  C   UNL     1      10.292  -1.431   0.340  0.00  0.00    +0.000 A 
ATOM     19  N   UNL     1      10.658  -1.118  -0.885  0.00  0.00    +0.000 NA
ATOM     20  C   UNL     1      10.680  -2.310  -1.550  0.00  0.00    +0.000 A 
ATOM     21  N   UNL     1      10.909  -2.440  -2.866  0.00  0.00    +0.000 NA
ATOM     22  C   UNL     1      10.680  -3.667  -3.365  0.00  0.00    +0.000 A 
ATOM     23  N   UNL     1      10.320  -4.777  -2.632  0.00  0.00    +0.000 N 
ATOM     24  O   UNL     1      10.015  -5.840  -3.255  0.00  0.00    +0.000 OA
ATOM     25  H   UNL     1       9.911  -3.252   1.363  0.00  0.00    +0.000 HD
ENDBRANCH  14  15
ENDBRANCH   1  14
TORSDOF 11
ENDMDL
MODEL 8
REMARK VINA RESULT:    -3.777      2.216      5.208
REMARK INTER + INTRA:          -7.315
REMARK INTER:                  -5.753
REMARK INTRA:                  -1.562
REMARK UNBOUND:                -1.109
REMARK  Name = C:\DDRIVE\PROJECT\rmpr\authml\backend\results\ligand_1764508811630.pdb
REMARK  12 active torsions:
REMARK  status: ('A' for Active; 'I' for Inactive)
REMARK    1  A    between atoms: C_1  and  C_2
REMARK    2  A    between atoms: C_2  and  O_3
REMARK    3  A    between atoms: O_3  and  C_4
REMARK    4  A    between atoms: C_4  and  C_6
REMARK    5  A    between atoms: C_6  and  N_7
REMARK    6  A    between atoms: N_7  and  C_8
REMARK    7  A    between atoms: C_8  and  C_9
REMARK    8  A    between atoms: C_9  and  C_10
REMARK    9  A    between atoms: C_10  and  C_11
REMARK   10  A    between atoms: C_11  and  C_12
REMARK   11  A    between atoms: C_12  and  S_13
REMARK   12  A    between atoms: S_13  and  C_14
REMARK                            x       y       z     vdW  Elec       q    Type
REMARK                         _______ _______ _______ _____ _____    ______ ____
ROOT
ATOM      1  C   UNL     1       8.431  -3.711   3.294  0.00  0.00    +0.000 C 
ENDROOT
BRANCH   1   2
ATOM      2  C   UNL     1       7.655  -5.005   2.947  0.00  0.00    +0.000 C 
BRANCH   2   3
ATOM      3  C   UNL     1       8.613  -6.219   2.890  0.00  0.00    +0.000 C 
BRANCH   3   4
ATOM      4  C   UNL     1       8.497  -7.080   1.613  0.00  0.00    +0.000 C 
BRANCH   4   5
ATOM      5  C   UNL     1       7.745  -6.315   0.502  0.00  0.00    +0.000 C 
BRANCH   5   6
ATOM      6  N   UNL     1       8.653  -5.729  -0.491  0.00  0.00    +0.000 NA
ATOM      7  H   UNL     1       9.579  -5.573  -0.087  0.00  0.00    +0.000 HD
BRANCH   6   8
ATOM      8  C   UNL     1       8.799  -6.622  -1.665  0.00  0.00    +0.000 C 
BRANCH   8   9
ATOM      9  C   UNL     1      10.156  -7.331  -1.664  0.00  0.00    +0.000 C 
ATOM     10  O   UNL     1      11.210  -6.833  -1.288  0.00  0.00    +0.000 OA
BRANCH   9  11
ATOM     11  O   UNL     1      10.005  -8.628  -2.072  0.00  0.00    +0.000 OA
BRANCH  11  13
ATOM     12  C   UNL     1      10.458 -10.193  -0.269  0.00  0.00    +0.000 C 
ATOM     13  C   UNL     1       9.399  -9.521  -1.123  0.00  0.00    +0.000 C 
ENDBRANCH  11  13
ENDBRANCH   9  11
ENDBRANCH   8   9
ENDBRANCH   6   8
ENDBRANCH   5   6
ENDBRANCH   4   5
ENDBRANCH   3   4
ENDBRANCH   2   3
ENDBRANCH   1   2
BRANCH   1  14
ATOM     14  S   UNL     1      10.134  -3.622   2.553  0.00  0.00    +0.000 S 
BRANCH  14  15
ATOM     15  C   UNL     1       9.937  -2.409   1.230  0.00  0.00    +0.000 A 
ATOM     16  C   UNL     1      10.330  -2.741  -0.076  0.00  0.00    +0.000 A 
ATOM     17  N   UNL     1      10.977  -3.792  -0.669  0.00  0.00    +0.000 N 
ATOM     18  C   UNL     1      11.210  -3.441  -1.977  0.00  0.00    +0.000 A 
ATOM     19  N   UNL     1      10.630  -2.301  -2.289  0.00  0.00    +0.000 NA
ATOM     20  C   UNL     1      10.111  -1.848  -1.110  0.00  0.00    +0.000 A 
ATOM     21  N   UNL     1       9.515  -0.656  -0.952  0.00  0.00    +0.000 NA
ATOM     22  C   UNL     1       9.262  -0.311   0.322  0.00  0.00    +0.000 A 
ATOM     23  N   UNL     1       9.489  -1.101   1.428  0.00  0.00    +0.000 N 
ATOM     24  O   UNL     1       9.318  -0.594   2.580  0.00  0.00    +0.000 OA
ATOM     25  H   UNL     1      11.340  -4.614  -0.212  0.00  0.00    +0.000 HD
ENDBRANCH  14  15
ENDBRANCH   1  14
TORSDOF 11
ENDMDL
MODEL 9
REMARK VINA RESULT:    -3.740      3.143      5.460
REMARK INTER + INTRA:          -7.254
REMARK INTER:                  -6.708
REMARK INTRA:                  -0.546
REMARK UNBOUND:                -1.109
REMARK  Name = C:\DDRIVE\PROJECT\rmpr\authml\backend\results\ligand_1764508811630.pdb
REMARK  12 active torsions:
REMARK  status: ('A' for Active; 'I' for Inactive)
REMARK    1  A    between atoms: C_1  and  C_2
REMARK    2  A    between atoms: C_2  and  O_3
REMARK    3  A    between atoms: O_3  and  C_4
REMARK    4  A    between atoms: C_4  and  C_6
REMARK    5  A    between atoms: C_6  and  N_7
REMARK    6  A    between atoms: N_7  and  C_8
REMARK    7  A    between atoms: C_8  and  C_9
REMARK    8  A    between atoms: C_9  and  C_10
REMARK    9  A    between atoms: C_10  and  C_11
REMARK   10  A    between atoms: C_11  and  C_12
REMARK   11  A    between atoms: C_12  and  S_13
REMARK   12  A    between atoms: S_13  and  C_14
REMARK                            x       y       z     vdW  Elec       q    Type
REMARK                         _______ _______ _______ _____ _____    ______ ____
ROOT
ATOM      1  C   UNL     1       9.692  -0.975  -1.211  0.00  0.00    +0.000 C 
ENDROOT
BRANCH   1   2
ATOM      2  C   UNL     1       8.812  -0.407  -0.072  0.00  0.00    +0.000 C 
BRANCH   2   3
ATOM      3  C   UNL     1       9.597  -0.369   1.261  0.00  0.00    +0.000 C 
BRANCH   3   4
ATOM      4  C   UNL     1       8.798  -0.831   2.500  0.00  0.00    +0.000 C 
BRANCH   4   5
ATOM      5  C   UNL     1       9.085   0.084   3.710  0.00  0.00    +0.000 C 
BRANCH   5   6
ATOM      6  N   UNL     1       8.438   1.396   3.590  0.00  0.00    +0.000 NA
ATOM      7  H   UNL     1       7.776   1.404   2.811  0.00  0.00    +0.000 HD
BRANCH   6   8
ATOM      8  C   UNL     1       7.703   1.738   4.832  0.00  0.00    +0.000 C 
BRANCH   8   9
ATOM      9  C   UNL     1       6.271   1.197   4.801  0.00  0.00    +0.000 C 
ATOM     10  O   UNL     1       5.415   1.514   3.984  0.00  0.00    +0.000 OA
BRANCH   9  11
ATOM     11  O   UNL     1       6.110   0.249   5.774  0.00  0.00    +0.000 OA
BRANCH  11  13
ATOM     12  C   UNL     1       3.951  -0.714   6.341  0.00  0.00    +0.000 C 
ATOM     13  C   UNL     1       4.951   0.396   6.612  0.00  0.00    +0.000 C 
ENDBRANCH  11  13
ENDBRANCH   9  11
ENDBRANCH   8   9
ENDBRANCH   6   8
ENDBRANCH   5   6
ENDBRANCH   4   5
ENDBRANCH   3   4
ENDBRANCH   2   3
ENDBRANCH   1   2
BRANCH   1  14
ATOM     14  S   UNL     1      10.857  -2.322  -0.673  0.00  0.00    +0.000 S 
BRANCH  14  15
ATOM     15  C   UNL     1      10.138  -3.800  -1.422  0.00  0.00    +0.000 A 
ATOM     16  C   UNL     1       9.445  -4.715  -0.614  0.00  0.00    +0.000 A 
ATOM     17  N   UNL     1       9.223  -4.869   0.728  0.00  0.00    +0.000 N 
ATOM     18  C   UNL     1       8.592  -6.077   0.901  0.00  0.00    +0.000 A 
ATOM     19  N   UNL     1       8.272  -6.631  -0.250  0.00  0.00    +0.000 NA
ATOM     20  C   UNL     1       8.824  -5.809  -1.190  0.00  0.00    +0.000 A 
ATOM     21  N   UNL     1       8.823  -6.058  -2.508  0.00  0.00    +0.000 NA
ATOM     22  C   UNL     1       9.596  -5.239  -3.242  0.00  0.00    +0.000 A 
ATOM     23  N   UNL     1      10.296  -4.154  -2.763  0.00  0.00    +0.000 N 
ATOM     24  O   UNL     1      11.085  -3.546  -3.552  0.00  0.00    +0.000 OA
ATOM     25  H   UNL     1       9.572  -4.282   1.469  0.00  0.00    +0.000 HD
ENDBRANCH  14  15
ENDBRANCH   1  14
TORSDOF 11
ENDMDL
