MODEL 1
REMARK VINA RESULT:    -4.318      0.000      0.000
REMARK INTER + INTRA:          -6.101
REMARK INTER:                  -5.454
REMARK INTRA:                  -0.647
REMARK UNBOUND:                -0.647
REMARK  Name = C:\DDRIVE\PROJECT\RMPRF\authml\backend\results\ligand_1764577654674.pdb
REMARK  6 active torsions:
REMARK  status: ('A' for Active; 'I' for Inactive)
REMARK    1  A    between atoms: C_1  and  C_2
REMARK    2  A    between atoms: C_2  and  C_4
REMARK    3  A    between atoms: C_9  and  O_10
REMARK    4  A    between atoms: O_10  and  C_11
REMARK    5  A    between atoms: C_11  and  C_12
REMARK    6  A    between atoms: C_12  and  O_14
REMARK                            x       y       z     vdW  Elec       q    Type
REMARK                         _______ _______ _______ _____ _____    ______ ____
ROOT
ATOM      1  C   UNL     1      -4.359  -3.063   1.839  0.00  0.00    +0.000 A 
ATOM      2  C   UNL     1      -4.928  -1.774   1.791  0.00  0.00    +0.000 A 
ATOM      3  C   UNL     1      -5.265  -1.177   0.574  0.00  0.00    +0.000 A 
ATOM      4  C   UNL     1      -5.032  -1.856  -0.614  0.00  0.00    +0.000 A 
ATOM      5  C   UNL     1      -4.494  -3.141  -0.579  0.00  0.00    +0.000 A 
ATOM      6  C   UNL     1      -4.173  -3.767   0.638  0.00  0.00    +0.000 A 
ENDROOT
BRANCH   1   8
ATOM      7  C   UNL     1      -2.613  -2.925   3.748  0.00  0.00    +0.000 C 
ATOM      8  C   UNL     1      -3.865  -3.538   3.167  0.00  0.00    +0.000 C 
ATOM      9  O   UNL     1      -4.433  -4.448   3.763  0.00  0.00    +0.000 OA
ENDBRANCH   1   8
BRANCH   6  10
ATOM     10  O   UNL     1      -3.614  -4.997   0.440  0.00  0.00    +0.000 OA
BRANCH  10  11
ATOM     11  C   UNL     1      -4.457  -6.142   0.387  0.00  0.00    +0.000 C 
BRANCH  11  12
ATOM     12  C   UNL     1      -4.302  -7.027   1.613  0.00  0.00    +0.000 C 
ATOM     13  O   UNL     1      -3.330  -7.731   1.856  0.00  0.00    +0.000 OA
BRANCH  12  14
ATOM     14  O   UNL     1      -5.336  -6.973   2.480  0.00  0.00    +0.000 OA
ATOM     15  H   UNL     1      -6.128  -7.066   1.918  0.00  0.00    +0.000 HD
ENDBRANCH  12  14
ENDBRANCH  11  12
ENDBRANCH  10  11
ENDBRANCH   6  10
TORSDOF 5
ENDMDL
