MODEL 1
REMARK VINA RESULT:    -3.188      0.000      0.000
REMARK INTER + INTRA:          -3.882
REMARK INTER:                  -3.748
REMARK INTRA:                  -0.134
REMARK UNBOUND:                -0.134
REMARK  Name = C:\Users\Bellamkonda Sowmya\OneDrive\Documents\backend[1]\backend\results\ligand_1764364478892.pdb
REMARK  6 active torsions:
REMARK  status: ('A' for Active; 'I' for Inactive)
REMARK    1  A    between atoms: C_1  and  C_2
REMARK    2  A    between atoms: C_2  and  N_3
REMARK    3  A    between atoms: N_3  and  C_4
REMARK    4  A    between atoms: N_3  and  C_6
REMARK    5  A    between atoms: C_4  and  C_5
REMARK    6  A    between atoms: C_6  and  C_7
REMARK                            x       y       z     vdW  Elec       q    Type
REMARK                         _______ _______ _______ _____ _____    ______ ____
ROOT
ATOM      1  N   UNL     1       4.733   2.192   4.286  0.00  0.00    +0.000 NA
ENDROOT
BRANCH   1   3
ATOM      2  C   UNL     1       6.478   3.984   4.332  0.00  0.00    +0.000 C 
ATOM      3  C   UNL     1       5.137   3.511   3.771  0.00  0.00    +0.000 C 
ENDBRANCH   1   3
BRANCH   1   4
ATOM      4  C   UNL     1       5.753   1.534   5.124  0.00  0.00    +0.000 C 
ATOM      5  C   UNL     1       6.506   0.363   4.495  0.00  0.00    +0.000 C 
ENDBRANCH   1   4
BRANCH   1   6
ATOM      6  C   UNL     1       3.428   2.230   4.964  0.00  0.00    +0.000 C 
ATOM      7  C   UNL     1       3.422   3.132   6.197  0.00  0.00    +0.000 C 
ENDBRANCH   1   6
TORSDOF 3
ENDMDL
MODEL 2
REMARK VINA RESULT:    -3.166      1.582      2.569
REMARK INTER + INTRA:          -3.855
REMARK INTER:                  -3.684
REMARK INTRA:                  -0.171
REMARK UNBOUND:                -0.134
REMARK  Name = C:\Users\Bellamkonda Sowmya\OneDrive\Documents\backend[1]\backend\results\ligand_1764364478892.pdb
REMARK  6 active torsions:
REMARK  status: ('A' for Active; 'I' for Inactive)
REMARK    1  A    between atoms: C_1  and  C_2
REMARK    2  A    between atoms: C_2  and  N_3
REMARK    3  A    between atoms: N_3  and  C_4
REMARK    4  A    between atoms: N_3  and  C_6
REMARK    5  A    between atoms: C_4  and  C_5
REMARK    6  A    between atoms: C_6  and  C_7
REMARK                            x       y       z     vdW  Elec       q    Type
REMARK                         _______ _______ _______ _____ _____    ______ ____
ROOT
ATOM      1  N   UNL     1       5.724   3.398   4.445  0.00  0.00    +0.000 NA
ENDROOT
BRANCH   1   3
ATOM      2  C   UNL     1       7.393   1.591   4.900  0.00  0.00    +0.000 C 
ATOM      3  C   UNL     1       7.006   3.058   5.084  0.00  0.00    +0.000 C 
ENDBRANCH   1   3
BRANCH   1   4
ATOM      4  C   UNL     1       4.808   2.253   4.285  0.00  0.00    +0.000 C 
ATOM      5  C   UNL     1       3.447   2.361   4.971  0.00  0.00    +0.000 C 
ENDBRANCH   1   4
BRANCH   1   6
ATOM      6  C   UNL     1       5.052   4.531   5.100  0.00  0.00    +0.000 C 
ATOM      7  C   UNL     1       5.615   4.838   6.486  0.00  0.00    +0.000 C 
ENDBRANCH   1   6
TORSDOF 3
ENDMDL
MODEL 3
REMARK VINA RESULT:    -3.114      1.549      2.842
REMARK INTER + INTRA:          -3.794
REMARK INTER:                  -3.650
REMARK INTRA:                  -0.144
REMARK UNBOUND:                -0.134
REMARK  Name = C:\Users\Bellamkonda Sowmya\OneDrive\Documents\backend[1]\backend\results\ligand_1764364478892.pdb
REMARK  6 active torsions:
REMARK  status: ('A' for Active; 'I' for Inactive)
REMARK    1  A    between atoms: C_1  and  C_2
REMARK    2  A    between atoms: C_2  and  N_3
REMARK    3  A    between atoms: N_3  and  C_4
REMARK    4  A    between atoms: N_3  and  C_6
REMARK    5  A    between atoms: C_4  and  C_5
REMARK    6  A    between atoms: C_6  and  C_7
REMARK                            x       y       z     vdW  Elec       q    Type
REMARK                         _______ _______ _______ _____ _____    ______ ____
ROOT
ATOM      1  N   UNL     1       5.737   2.860   5.207  0.00  0.00    +0.000 NA
ENDROOT
BRANCH   1   3
ATOM      2  C   UNL     1       7.299   1.014   4.571  0.00  0.00    +0.000 C 
ATOM      3  C   UNL     1       7.105   2.514   4.788  0.00  0.00    +0.000 C 
ENDBRANCH   1   3
BRANCH   1   4
ATOM      4  C   UNL     1       5.447   4.306   5.184  0.00  0.00    +0.000 C 
ATOM      5  C   UNL     1       5.472   5.032   6.528  0.00  0.00    +0.000 C 
ENDBRANCH   1   4
BRANCH   1   6
ATOM      6  C   UNL     1       4.714   2.099   4.471  0.00  0.00    +0.000 C 
ATOM      7  C   UNL     1       3.305   2.304   5.026  0.00  0.00    +0.000 C 
ENDBRANCH   1   6
TORSDOF 3
ENDMDL
MODEL 4
REMARK VINA RESULT:    -3.086      1.764      2.944
REMARK INTER + INTRA:          -3.761
REMARK INTER:                  -3.565
REMARK INTRA:                  -0.195
REMARK UNBOUND:                -0.134
REMARK  Name = C:\Users\Bellamkonda Sowmya\OneDrive\Documents\backend[1]\backend\results\ligand_1764364478892.pdb
REMARK  6 active torsions:
REMARK  status: ('A' for Active; 'I' for Inactive)
REMARK    1  A    between atoms: C_1  and  C_2
REMARK    2  A    between atoms: C_2  and  N_3
REMARK    3  A    between atoms: N_3  and  C_4
REMARK    4  A    between atoms: N_3  and  C_6
REMARK    5  A    between atoms: C_4  and  C_5
REMARK    6  A    between atoms: C_6  and  C_7
REMARK                            x       y       z     vdW  Elec       q    Type
REMARK                         _______ _______ _______ _____ _____    ______ ____
ROOT
ATOM      1  N   UNL     1       6.911   2.523   4.768  0.00  0.00    +0.000 NA
ENDROOT
BRANCH   1   3
ATOM      2  C   UNL     1       4.947   3.465   3.539  0.00  0.00    +0.000 C 
ATOM      3  C   UNL     1       6.192   3.747   4.380  0.00  0.00    +0.000 C 
ENDBRANCH   1   3
BRANCH   1   4
ATOM      4  C   UNL     1       7.360   2.508   6.173  0.00  0.00    +0.000 C 
ATOM      5  C   UNL     1       6.348   2.966   7.222  0.00  0.00    +0.000 C 
ENDBRANCH   1   4
BRANCH   1   6
ATOM      6  C   UNL     1       6.163   1.301   4.434  0.00  0.00    +0.000 C 
ATOM      7  C   UNL     1       6.875   0.025   4.882  0.00  0.00    +0.000 C 
ENDBRANCH   1   6
TORSDOF 3
ENDMDL
MODEL 5
REMARK VINA RESULT:    -3.083      1.523      2.358
REMARK INTER + INTRA:          -3.758
REMARK INTER:                  -3.622
REMARK INTRA:                  -0.136
REMARK UNBOUND:                -0.134
REMARK  Name = C:\Users\Bellamkonda Sowmya\OneDrive\Documents\backend[1]\backend\results\ligand_1764364478892.pdb
REMARK  6 active torsions:
REMARK  status: ('A' for Active; 'I' for Inactive)
REMARK    1  A    between atoms: C_1  and  C_2
REMARK    2  A    between atoms: C_2  and  N_3
REMARK    3  A    between atoms: N_3  and  C_4
REMARK    4  A    between atoms: N_3  and  C_6
REMARK    5  A    between atoms: C_4  and  C_5
REMARK    6  A    between atoms: C_6  and  C_7
REMARK                            x       y       z     vdW  Elec       q    Type
REMARK                         _______ _______ _______ _____ _____    ______ ____
ROOT
ATOM      1  N   UNL     1       5.662   2.873   5.288  0.00  0.00    +0.000 NA
ENDROOT
BRANCH   1   3
ATOM      2  C   UNL     1       3.220   2.394   5.047  0.00  0.00    +0.000 C 
ATOM      3  C   UNL     1       4.640   2.090   4.573  0.00  0.00    +0.000 C 
ENDBRANCH   1   3
BRANCH   1   4
ATOM      4  C   UNL     1       7.049   2.477   4.981  0.00  0.00    +0.000 C 
ATOM      5  C   UNL     1       7.270   1.025   4.555  0.00  0.00    +0.000 C 
ENDBRANCH   1   4
BRANCH   1   6
ATOM      6  C   UNL     1       5.474   4.324   5.126  0.00  0.00    +0.000 C 
ATOM      7  C   UNL     1       5.422   5.070   6.459  0.00  0.00    +0.000 C 
ENDBRANCH   1   6
TORSDOF 3
ENDMDL
MODEL 6
REMARK VINA RESULT:    -3.083      1.760      2.591
REMARK INTER + INTRA:          -3.758
REMARK INTER:                  -3.556
REMARK INTRA:                  -0.202
REMARK UNBOUND:                -0.134
REMARK  Name = C:\Users\Bellamkonda Sowmya\OneDrive\Documents\backend[1]\backend\results\ligand_1764364478892.pdb
REMARK  6 active torsions:
REMARK  status: ('A' for Active; 'I' for Inactive)
REMARK    1  A    between atoms: C_1  and  C_2
REMARK    2  A    between atoms: C_2  and  N_3
REMARK    3  A    between atoms: N_3  and  C_4
REMARK    4  A    between atoms: N_3  and  C_6
REMARK    5  A    between atoms: C_4  and  C_5
REMARK    6  A    between atoms: C_6  and  C_7
REMARK                            x       y       z     vdW  Elec       q    Type
REMARK                         _______ _______ _______ _____ _____    ______ ____
ROOT
ATOM      1  N   UNL     1       6.963   2.476   4.763  0.00  0.00    +0.000 NA
ENDROOT
BRANCH   1   3
ATOM      2  C   UNL     1       6.333   2.992   7.128  0.00  0.00    +0.000 C 
ATOM      3  C   UNL     1       7.400   2.465   6.169  0.00  0.00    +0.000 C 
ENDBRANCH   1   3
BRANCH   1   4
ATOM      4  C   UNL     1       6.199   1.281   4.359  0.00  0.00    +0.000 C 
ATOM      5  C   UNL     1       6.713  -0.066   4.868  0.00  0.00    +0.000 C 
ENDBRANCH   1   4
BRANCH   1   6
ATOM      6  C   UNL     1       6.248   3.712   4.406  0.00  0.00    +0.000 C 
ATOM      7  C   UNL     1       4.975   3.453   3.602  0.00  0.00    +0.000 C 
ENDBRANCH   1   6
TORSDOF 3
ENDMDL
MODEL 7
REMARK VINA RESULT:    -3.081      1.518      3.442
REMARK INTER + INTRA:          -3.755
REMARK INTER:                  -3.601
REMARK INTRA:                  -0.154
REMARK UNBOUND:                -0.134
REMARK  Name = C:\Users\Bellamkonda Sowmya\OneDrive\Documents\backend[1]\backend\results\ligand_1764364478892.pdb
REMARK  6 active torsions:
REMARK  status: ('A' for Active; 'I' for Inactive)
REMARK    1  A    between atoms: C_1  and  C_2
REMARK    2  A    between atoms: C_2  and  N_3
REMARK    3  A    between atoms: N_3  and  C_4
REMARK    4  A    between atoms: N_3  and  C_6
REMARK    5  A    between atoms: C_4  and  C_5
REMARK    6  A    between atoms: C_6  and  C_7
REMARK                            x       y       z     vdW  Elec       q    Type
REMARK                         _______ _______ _______ _____ _____    ______ ____
ROOT
ATOM      1  N   UNL     1       5.957   3.067   4.411  0.00  0.00    +0.000 NA
ENDROOT
BRANCH   1   3
ATOM      2  C   UNL     1       3.651   2.176   4.787  0.00  0.00    +0.000 C 
ATOM      3  C   UNL     1       5.004   1.988   4.104  0.00  0.00    +0.000 C 
ENDBRANCH   1   3
BRANCH   1   4
ATOM      4  C   UNL     1       5.326   4.305   4.905  0.00  0.00    +0.000 C 
ATOM      5  C   UNL     1       5.673   4.731   6.332  0.00  0.00    +0.000 C 
ENDBRANCH   1   4
BRANCH   1   6
ATOM      6  C   UNL     1       7.038   2.625   5.307  0.00  0.00    +0.000 C 
ATOM      7  C   UNL     1       7.575   1.239   4.953  0.00  0.00    +0.000 C 
ENDBRANCH   1   6
TORSDOF 3
ENDMDL
MODEL 8
REMARK VINA RESULT:    -3.076      1.535      3.011
REMARK INTER + INTRA:          -3.749
REMARK INTER:                  -3.605
REMARK INTRA:                  -0.145
REMARK UNBOUND:                -0.134
REMARK  Name = C:\Users\Bellamkonda Sowmya\OneDrive\Documents\backend[1]\backend\results\ligand_1764364478892.pdb
REMARK  6 active torsions:
REMARK  status: ('A' for Active; 'I' for Inactive)
REMARK    1  A    between atoms: C_1  and  C_2
REMARK    2  A    between atoms: C_2  and  N_3
REMARK    3  A    between atoms: N_3  and  C_4
REMARK    4  A    between atoms: N_3  and  C_6
REMARK    5  A    between atoms: C_4  and  C_5
REMARK    6  A    between atoms: C_6  and  C_7
REMARK                            x       y       z     vdW  Elec       q    Type
REMARK                         _______ _______ _______ _____ _____    ______ ____
ROOT
ATOM      1  N   UNL     1       5.695   2.877   5.318  0.00  0.00    +0.000 NA
ENDROOT
BRANCH   1   3
ATOM      2  C   UNL     1       5.449   5.049   6.533  0.00  0.00    +0.000 C 
ATOM      3  C   UNL     1       5.455   4.323   5.188  0.00  0.00    +0.000 C 
ENDBRANCH   1   3
BRANCH   1   4
ATOM      4  C   UNL     1       4.647   2.034   4.712  0.00  0.00    +0.000 C 
ATOM      5  C   UNL     1       3.202   2.368   5.078  0.00  0.00    +0.000 C 
ENDBRANCH   1   4
BRANCH   1   6
ATOM      6  C   UNL     1       7.034   2.484   4.849  0.00  0.00    +0.000 C 
ATOM      7  C   UNL     1       7.130   1.001   4.496  0.00  0.00    +0.000 C 
ENDBRANCH   1   6
TORSDOF 3
ENDMDL
MODEL 9
REMARK VINA RESULT:    -3.008      1.513      2.624
REMARK INTER + INTRA:          -3.669
REMARK INTER:                  -3.481
REMARK INTRA:                  -0.188
REMARK UNBOUND:                -0.134
REMARK  Name = C:\Users\Bellamkonda Sowmya\OneDrive\Documents\backend[1]\backend\results\ligand_1764364478892.pdb
REMARK  6 active torsions:
REMARK  status: ('A' for Active; 'I' for Inactive)
REMARK    1  A    between atoms: C_1  and  C_2
REMARK    2  A    between atoms: C_2  and  N_3
REMARK    3  A    between atoms: N_3  and  C_4
REMARK    4  A    between atoms: N_3  and  C_6
REMARK    5  A    between atoms: C_4  and  C_5
REMARK    6  A    between atoms: C_6  and  C_7
REMARK                            x       y       z     vdW  Elec       q    Type
REMARK                         _______ _______ _______ _____ _____    ______ ____
ROOT
ATOM      1  N   UNL     1       5.594   1.876   5.247  0.00  0.00    +0.000 NA
ENDROOT
BRANCH   1   3
ATOM      2  C   UNL     1       7.734   0.864   4.439  0.00  0.00    +0.000 C 
ATOM      3  C   UNL     1       6.207   0.808   4.440  0.00  0.00    +0.000 C 
ENDBRANCH   1   3
BRANCH   1   4
ATOM      4  C   UNL     1       6.537   2.567   6.147  0.00  0.00    +0.000 C 
ATOM      5  C   UNL     1       6.456   2.209   7.631  0.00  0.00    +0.000 C 
ENDBRANCH   1   4
BRANCH   1   6
ATOM      6  C   UNL     1       4.837   2.836   4.429  0.00  0.00    +0.000 C 
ATOM      7  C   UNL     1       5.342   4.270   4.573  0.00  0.00    +0.000 C 
ENDBRANCH   1   6
TORSDOF 3
ENDMDL
