MODEL 1
REMARK VINA RESULT:    -2.946      0.000      0.000
REMARK INTER + INTRA:          -3.625
REMARK INTER:                  -3.463
REMARK INTRA:                  -0.162
REMARK UNBOUND:                -0.162
REMARK  Name = results/c8143154-0913-4027-9674-ccd2fa42a97e_ligand.pdb
REMARK  6 active torsions:
REMARK  status: ('A' for Active; 'I' for Inactive)
REMARK    1  A    between atoms: C1_1  and  C2_2
REMARK    2  A    between atoms: C2_2  and  N1_3
REMARK    3  A    between atoms: N1_3  and  C3_4
REMARK    4  A    between atoms: N1_3  and  C5_6
REMARK    5  A    between atoms: C3_4  and  C4_5
REMARK    6  A    between atoms: C5_6  and  C6_7
REMARK                            x       y       z     vdW  Elec       q    Type
REMARK                         _______ _______ _______ _____ _____    ______ ____
ROOT
ATOM      1  N1  UNL     1      -4.530  -3.219   2.199  0.00  0.00    +0.000 NA
ENDROOT
BRANCH   1   3
ATOM      2  C1  UNL     1      -5.962  -1.319   2.820  0.00  0.00    +0.000 C 
ATOM      3  C2  UNL     1      -4.549  -1.754   2.450  0.00  0.00    +0.000 C 
ENDBRANCH   1   3
BRANCH   1   4
ATOM      4  C3  UNL     1      -3.564  -3.915   3.079  0.00  0.00    +0.000 C 
ATOM      5  C4  UNL     1      -2.629  -2.919   3.765  0.00  0.00    +0.000 C 
ENDBRANCH   1   4
BRANCH   1   6
ATOM      6  C5  UNL     1      -4.251  -3.529   0.777  0.00  0.00    +0.000 C 
ATOM      7  C6  UNL     1      -3.633  -4.919   0.630  0.00  0.00    +0.000 C 
ENDBRANCH   1   6
TORSDOF 3
ENDMDL
MODEL 2
REMARK VINA RESULT:    -2.930      0.052      3.190
REMARK INTER + INTRA:          -3.606
REMARK INTER:                  -3.447
REMARK INTRA:                  -0.159
REMARK UNBOUND:                -0.162
REMARK  Name = results/c8143154-0913-4027-9674-ccd2fa42a97e_ligand.pdb
REMARK  6 active torsions:
REMARK  status: ('A' for Active; 'I' for Inactive)
REMARK    1  A    between atoms: C1_1  and  C2_2
REMARK    2  A    between atoms: C2_2  and  N1_3
REMARK    3  A    between atoms: N1_3  and  C3_4
REMARK    4  A    between atoms: N1_3  and  C5_6
REMARK    5  A    between atoms: C3_4  and  C4_5
REMARK    6  A    between atoms: C5_6  and  C6_7
REMARK                            x       y       z     vdW  Elec       q    Type
REMARK                         _______ _______ _______ _____ _____    ______ ____
ROOT
ATOM      1  N1  UNL     1      -4.536  -3.238   2.181  0.00  0.00    +0.000 NA
ENDROOT
BRANCH   1   3
ATOM      2  C1  UNL     1      -2.648  -2.933   3.726  0.00  0.00    +0.000 C 
ATOM      3  C2  UNL     1      -3.571  -3.947   3.062  0.00  0.00    +0.000 C 
ENDBRANCH   1   3
BRANCH   1   4
ATOM      4  C3  UNL     1      -4.271  -3.503   0.748  0.00  0.00    +0.000 C 
ATOM      5  C4  UNL     1      -3.665  -4.893   0.550  0.00  0.00    +0.000 C 
ENDBRANCH   1   4
BRANCH   1   6
ATOM      6  C5  UNL     1      -4.551  -1.780   2.443  0.00  0.00    +0.000 C 
ATOM      7  C6  UNL     1      -5.941  -1.315   2.877  0.00  0.00    +0.000 C 
ENDBRANCH   1   6
TORSDOF 3
ENDMDL
MODEL 3
REMARK VINA RESULT:    -2.930      0.085      3.186
REMARK INTER + INTRA:          -3.606
REMARK INTER:                  -3.446
REMARK INTRA:                  -0.159
REMARK UNBOUND:                -0.162
REMARK  Name = results/c8143154-0913-4027-9674-ccd2fa42a97e_ligand.pdb
REMARK  6 active torsions:
REMARK  status: ('A' for Active; 'I' for Inactive)
REMARK    1  A    between atoms: C1_1  and  C2_2
REMARK    2  A    between atoms: C2_2  and  N1_3
REMARK    3  A    between atoms: N1_3  and  C3_4
REMARK    4  A    between atoms: N1_3  and  C5_6
REMARK    5  A    between atoms: C3_4  and  C4_5
REMARK    6  A    between atoms: C5_6  and  C6_7
REMARK                            x       y       z     vdW  Elec       q    Type
REMARK                         _______ _______ _______ _____ _____    ______ ____
ROOT
ATOM      1  N1  UNL     1      -4.549  -3.238   2.217  0.00  0.00    +0.000 NA
ENDROOT
BRANCH   1   3
ATOM      2  C1  UNL     1      -3.568  -4.948   0.747  0.00  0.00    +0.000 C 
ATOM      3  C2  UNL     1      -4.197  -3.562   0.810  0.00  0.00    +0.000 C 
ENDBRANCH   1   3
BRANCH   1   4
ATOM      4  C3  UNL     1      -4.585  -1.777   2.454  0.00  0.00    +0.000 C 
ATOM      5  C4  UNL     1      -5.975  -1.327   2.904  0.00  0.00    +0.000 C 
ENDBRANCH   1   4
BRANCH   1   6
ATOM      6  C5  UNL     1      -3.632  -3.896   3.177  0.00  0.00    +0.000 C 
ATOM      7  C6  UNL     1      -2.656  -2.887   3.782  0.00  0.00    +0.000 C 
ENDBRANCH   1   6
TORSDOF 3
ENDMDL
MODEL 4
REMARK VINA RESULT:    -2.909      0.651      2.497
REMARK INTER + INTRA:          -3.580
REMARK INTER:                  -3.426
REMARK INTRA:                  -0.154
REMARK UNBOUND:                -0.162
REMARK  Name = results/c8143154-0913-4027-9674-ccd2fa42a97e_ligand.pdb
REMARK  6 active torsions:
REMARK  status: ('A' for Active; 'I' for Inactive)
REMARK    1  A    between atoms: C1_1  and  C2_2
REMARK    2  A    between atoms: C2_2  and  N1_3
REMARK    3  A    between atoms: N1_3  and  C3_4
REMARK    4  A    between atoms: N1_3  and  C5_6
REMARK    5  A    between atoms: C3_4  and  C4_5
REMARK    6  A    between atoms: C5_6  and  C6_7
REMARK                            x       y       z     vdW  Elec       q    Type
REMARK                         _______ _______ _______ _____ _____    ______ ____
ROOT
ATOM      1  N1  UNL     1      -4.230  -3.098   2.023  0.00  0.00    +0.000 NA
ENDROOT
BRANCH   1   3
ATOM      2  C1  UNL     1      -5.809  -1.396   2.834  0.00  0.00    +0.000 C 
ATOM      3  C2  UNL     1      -5.651  -2.841   2.378  0.00  0.00    +0.000 C 
ENDBRANCH   1   3
BRANCH   1   4
ATOM      4  C3  UNL     1      -4.108  -3.851   0.754  0.00  0.00    +0.000 C 
ATOM      5  C4  UNL     1      -3.462  -5.217   0.986  0.00  0.00    +0.000 C 
ENDBRANCH   1   4
BRANCH   1   6
ATOM      6  C5  UNL     1      -3.510  -3.798   3.112  0.00  0.00    +0.000 C 
ATOM      7  C6  UNL     1      -2.532  -2.858   3.815  0.00  0.00    +0.000 C 
ENDBRANCH   1   6
TORSDOF 3
ENDMDL
MODEL 5
REMARK VINA RESULT:    -2.900      0.634      2.407
REMARK INTER + INTRA:          -3.570
REMARK INTER:                  -3.419
REMARK INTRA:                  -0.150
REMARK UNBOUND:                -0.162
REMARK  Name = results/c8143154-0913-4027-9674-ccd2fa42a97e_ligand.pdb
REMARK  6 active torsions:
REMARK  status: ('A' for Active; 'I' for Inactive)
REMARK    1  A    between atoms: C1_1  and  C2_2
REMARK    2  A    between atoms: C2_2  and  N1_3
REMARK    3  A    between atoms: N1_3  and  C3_4
REMARK    4  A    between atoms: N1_3  and  C5_6
REMARK    5  A    between atoms: C3_4  and  C4_5
REMARK    6  A    between atoms: C5_6  and  C6_7
REMARK                            x       y       z     vdW  Elec       q    Type
REMARK                         _______ _______ _______ _____ _____    ______ ____
ROOT
ATOM      1  N1  UNL     1      -4.275  -3.128   2.049  0.00  0.00    +0.000 NA
ENDROOT
BRANCH   1   3
ATOM      2  C1  UNL     1      -2.577  -2.891   3.812  0.00  0.00    +0.000 C 
ATOM      3  C2  UNL     1      -3.533  -3.851   3.115  0.00  0.00    +0.000 C 
ENDBRANCH   1   3
BRANCH   1   4
ATOM      4  C3  UNL     1      -5.667  -2.828   2.454  0.00  0.00    +0.000 C 
ATOM      5  C4  UNL     1      -5.817  -1.362   2.862  0.00  0.00    +0.000 C 
ENDBRANCH   1   4
BRANCH   1   6
ATOM      6  C5  UNL     1      -4.257  -3.870   0.768  0.00  0.00    +0.000 C 
ATOM      7  C6  UNL     1      -3.449  -5.162   0.893  0.00  0.00    +0.000 C 
ENDBRANCH   1   6
TORSDOF 3
ENDMDL
MODEL 6
REMARK VINA RESULT:    -2.774      1.236      2.658
REMARK INTER + INTRA:          -3.422
REMARK INTER:                  -3.229
REMARK INTRA:                  -0.193
REMARK UNBOUND:                -0.162
REMARK  Name = results/c8143154-0913-4027-9674-ccd2fa42a97e_ligand.pdb
REMARK  6 active torsions:
REMARK  status: ('A' for Active; 'I' for Inactive)
REMARK    1  A    between atoms: C1_1  and  C2_2
REMARK    2  A    between atoms: C2_2  and  N1_3
REMARK    3  A    between atoms: N1_3  and  C3_4
REMARK    4  A    between atoms: N1_3  and  C5_6
REMARK    5  A    between atoms: C3_4  and  C4_5
REMARK    6  A    between atoms: C5_6  and  C6_7
REMARK                            x       y       z     vdW  Elec       q    Type
REMARK                         _______ _______ _______ _____ _____    ______ ____
ROOT
ATOM      1  N1  UNL     1      -4.537  -3.110   2.073  0.00  0.00    +0.000 NA
ENDROOT
BRANCH   1   3
ATOM      2  C1  UNL     1      -5.780  -4.919   3.183  0.00  0.00    +0.000 C 
ATOM      3  C2  UNL     1      -5.861  -3.778   2.175  0.00  0.00    +0.000 C 
ENDBRANCH   1   3
BRANCH   1   4
ATOM      4  C3  UNL     1      -3.482  -3.868   2.784  0.00  0.00    +0.000 C 
ATOM      5  C4  UNL     1      -2.680  -2.955   3.712  0.00  0.00    +0.000 C 
ENDBRANCH   1   4
BRANCH   1   6
ATOM      6  C5  UNL     1      -4.587  -1.713   2.560  0.00  0.00    +0.000 C 
ATOM      7  C6  UNL     1      -6.031  -1.257   2.769  0.00  0.00    +0.000 C 
ENDBRANCH   1   6
TORSDOF 3
ENDMDL
MODEL 7
REMARK VINA RESULT:    -2.772      1.454      3.086
REMARK INTER + INTRA:          -3.420
REMARK INTER:                  -3.280
REMARK INTRA:                  -0.140
REMARK UNBOUND:                -0.162
REMARK  Name = results/c8143154-0913-4027-9674-ccd2fa42a97e_ligand.pdb
REMARK  6 active torsions:
REMARK  status: ('A' for Active; 'I' for Inactive)
REMARK    1  A    between atoms: C1_1  and  C2_2
REMARK    2  A    between atoms: C2_2  and  N1_3
REMARK    3  A    between atoms: N1_3  and  C3_4
REMARK    4  A    between atoms: N1_3  and  C5_6
REMARK    5  A    between atoms: C3_4  and  C4_5
REMARK    6  A    between atoms: C5_6  and  C6_7
REMARK                            x       y       z     vdW  Elec       q    Type
REMARK                         _______ _______ _______ _____ _____    ______ ____
ROOT
ATOM      1  N1  UNL     1      -3.748  -4.454   2.044  0.00  0.00    +0.000 NA
ENDROOT
BRANCH   1   3
ATOM      2  C1  UNL     1      -2.674  -2.991   3.702  0.00  0.00    +0.000 C 
ATOM      3  C2  UNL     1      -3.844  -3.144   2.739  0.00  0.00    +0.000 C 
ENDBRANCH   1   3
BRANCH   1   4
ATOM      4  C3  UNL     1      -3.862  -4.308   0.575  0.00  0.00    +0.000 C 
ATOM      5  C4  UNL     1      -3.236  -5.502  -0.147  0.00  0.00    +0.000 C 
ENDBRANCH   1   4
BRANCH   1   6
ATOM      6  C5  UNL     1      -4.754  -5.418   2.547  0.00  0.00    +0.000 C 
ATOM      7  C6  UNL     1      -5.959  -4.691   3.144  0.00  0.00    +0.000 C 
ENDBRANCH   1   6
TORSDOF 3
ENDMDL
MODEL 8
REMARK VINA RESULT:    -2.716      1.033      2.832
REMARK INTER + INTRA:          -3.354
REMARK INTER:                  -3.199
REMARK INTRA:                  -0.155
REMARK UNBOUND:                -0.162
REMARK  Name = results/c8143154-0913-4027-9674-ccd2fa42a97e_ligand.pdb
REMARK  6 active torsions:
REMARK  status: ('A' for Active; 'I' for Inactive)
REMARK    1  A    between atoms: C1_1  and  C2_2
REMARK    2  A    between atoms: C2_2  and  N1_3
REMARK    3  A    between atoms: N1_3  and  C3_4
REMARK    4  A    between atoms: N1_3  and  C5_6
REMARK    5  A    between atoms: C3_4  and  C4_5
REMARK    6  A    between atoms: C5_6  and  C6_7
REMARK                            x       y       z     vdW  Elec       q    Type
REMARK                         _______ _______ _______ _____ _____    ______ ____
ROOT
ATOM      1  N1  UNL     1      -3.898  -3.339   1.668  0.00  0.00    +0.000 NA
ENDROOT
BRANCH   1   3
ATOM      2  C1  UNL     1      -3.271  -5.465   0.604  0.00  0.00    +0.000 C 
ATOM      3  C2  UNL     1      -4.382  -4.441   0.796  0.00  0.00    +0.000 C 
ENDBRANCH   1   3
BRANCH   1   4
ATOM      4  C3  UNL     1      -3.640  -3.804   3.051  0.00  0.00    +0.000 C 
ATOM      5  C4  UNL     1      -2.615  -2.910   3.749  0.00  0.00    +0.000 C 
ENDBRANCH   1   4
BRANCH   1   6
ATOM      6  C5  UNL     1      -4.833  -2.191   1.674  0.00  0.00    +0.000 C 
ATOM      7  C6  UNL     1      -4.910  -1.539   0.294  0.00  0.00    +0.000 C 
ENDBRANCH   1   6
TORSDOF 3
ENDMDL
MODEL 9
REMARK VINA RESULT:    -2.446     14.221     15.332
REMARK INTER + INTRA:          -3.036
REMARK INTER:                  -2.880
REMARK INTRA:                  -0.156
REMARK UNBOUND:                -0.162
REMARK  Name = results/c8143154-0913-4027-9674-ccd2fa42a97e_ligand.pdb
REMARK  6 active torsions:
REMARK  status: ('A' for Active; 'I' for Inactive)
REMARK    1  A    between atoms: C1_1  and  C2_2
REMARK    2  A    between atoms: C2_2  and  N1_3
REMARK    3  A    between atoms: N1_3  and  C3_4
REMARK    4  A    between atoms: N1_3  and  C5_6
REMARK    5  A    between atoms: C3_4  and  C4_5
REMARK    6  A    between atoms: C5_6  and  C6_7
REMARK                            x       y       z     vdW  Elec       q    Type
REMARK                         _______ _______ _______ _____ _____    ______ ____
ROOT
ATOM      1  N1  UNL     1      10.130  -4.432  -1.870  0.00  0.00    +0.000 NA
ENDROOT
BRANCH   1   3
ATOM      2  C1  UNL     1      12.132  -4.148  -3.269  0.00  0.00    +0.000 C 
ATOM      3  C2  UNL     1      10.653  -3.816  -3.118  0.00  0.00    +0.000 C 
ENDBRANCH   1   3
BRANCH   1   4
ATOM      4  C3  UNL     1       8.820  -5.087  -2.087  0.00  0.00    +0.000 C 
ATOM      5  C4  UNL     1       8.880  -6.061  -3.264  0.00  0.00    +0.000 C 
ENDBRANCH   1   4
BRANCH   1   6
ATOM      6  C5  UNL     1      10.040  -3.448  -0.767  0.00  0.00    +0.000 C 
ATOM      7  C6  UNL     1       9.851  -2.032  -1.310  0.00  0.00    +0.000 C 
ENDBRANCH   1   6
TORSDOF 3
ENDMDL
