MODEL 1
REMARK VINA RESULT:    -2.926      0.000      0.000
REMARK INTER + INTRA:          -3.592
REMARK INTER:                  -3.439
REMARK INTRA:                  -0.153
REMARK UNBOUND:                -0.153
REMARK  Name = C:\DDRIVE\PROJECT\rmpr\authml\backend\results\ligand_1764508386960.pdb
REMARK  6 active torsions:
REMARK  status: ('A' for Active; 'I' for Inactive)
REMARK    1  A    between atoms: C_1  and  C_2
REMARK    2  A    between atoms: C_2  and  N_3
REMARK    3  A    between atoms: N_3  and  C_4
REMARK    4  A    between atoms: N_3  and  C_6
REMARK    5  A    between atoms: C_4  and  C_5
REMARK    6  A    between atoms: C_6  and  C_7
REMARK                            x       y       z     vdW  Elec       q    Type
REMARK                         _______ _______ _______ _____ _____    ______ ____
ROOT
ATOM      1  N   UNL     1      -4.582  -3.197   2.302  0.00  0.00    +0.000 NA
ENDROOT
BRANCH   1   3
ATOM      2  C   UNL     1      -6.123  -1.280   2.751  0.00  0.00    +0.000 C 
ATOM      3  C   UNL     1      -4.687  -1.746   2.522  0.00  0.00    +0.000 C 
ENDBRANCH   1   3
BRANCH   1   4
ATOM      4  C   UNL     1      -4.266  -3.573   0.914  0.00  0.00    +0.000 C 
ATOM      5  C   UNL     1      -3.613  -4.936   0.702  0.00  0.00    +0.000 C 
ENDBRANCH   1   4
BRANCH   1   6
ATOM      6  C   UNL     1      -3.662  -3.845   3.252  0.00  0.00    +0.000 C 
ATOM      7  C   UNL     1      -2.600  -2.894   3.802  0.00  0.00    +0.000 C 
ENDBRANCH   1   6
TORSDOF 3
ENDMDL
MODEL 2
REMARK VINA RESULT:    -2.919      0.164      3.236
REMARK INTER + INTRA:          -3.584
REMARK INTER:                  -3.428
REMARK INTRA:                  -0.156
REMARK UNBOUND:                -0.153
REMARK  Name = C:\DDRIVE\PROJECT\rmpr\authml\backend\results\ligand_1764508386960.pdb
REMARK  6 active torsions:
REMARK  status: ('A' for Active; 'I' for Inactive)
REMARK    1  A    between atoms: C_1  and  C_2
REMARK    2  A    between atoms: C_2  and  N_3
REMARK    3  A    between atoms: N_3  and  C_4
REMARK    4  A    between atoms: N_3  and  C_6
REMARK    5  A    between atoms: C_4  and  C_5
REMARK    6  A    between atoms: C_6  and  C_7
REMARK                            x       y       z     vdW  Elec       q    Type
REMARK                         _______ _______ _______ _____ _____    ______ ____
ROOT
ATOM      1  N   UNL     1      -4.462  -3.225   2.184  0.00  0.00    +0.000 NA
ENDROOT
BRANCH   1   3
ATOM      2  C   UNL     1      -3.539  -5.032   0.722  0.00  0.00    +0.000 C 
ATOM      3  C   UNL     1      -4.081  -3.608   0.815  0.00  0.00    +0.000 C 
ENDBRANCH   1   3
BRANCH   1   4
ATOM      4  C   UNL     1      -3.586  -3.780   3.229  0.00  0.00    +0.000 C 
ATOM      5  C   UNL     1      -2.499  -2.860   3.777  0.00  0.00    +0.000 C 
ENDBRANCH   1   4
BRANCH   1   6
ATOM      6  C   UNL     1      -4.620  -1.770   2.339  0.00  0.00    +0.000 C 
ATOM      7  C   UNL     1      -5.997  -1.369   2.865  0.00  0.00    +0.000 C 
ENDBRANCH   1   6
TORSDOF 3
ENDMDL
MODEL 3
REMARK VINA RESULT:    -2.882      0.377      3.129
REMARK INTER + INTRA:          -3.541
REMARK INTER:                  -3.418
REMARK INTRA:                  -0.123
REMARK UNBOUND:                -0.153
REMARK  Name = C:\DDRIVE\PROJECT\rmpr\authml\backend\results\ligand_1764508386960.pdb
REMARK  6 active torsions:
REMARK  status: ('A' for Active; 'I' for Inactive)
REMARK    1  A    between atoms: C_1  and  C_2
REMARK    2  A    between atoms: C_2  and  N_3
REMARK    3  A    between atoms: N_3  and  C_4
REMARK    4  A    between atoms: N_3  and  C_6
REMARK    5  A    between atoms: C_4  and  C_5
REMARK    6  A    between atoms: C_6  and  C_7
REMARK                            x       y       z     vdW  Elec       q    Type
REMARK                         _______ _______ _______ _____ _____    ______ ____
ROOT
ATOM      1  N   UNL     1      -4.510  -3.413   2.080  0.00  0.00    +0.000 NA
ENDROOT
BRANCH   1   3
ATOM      2  C   UNL     1      -2.684  -2.913   3.713  0.00  0.00    +0.000 C 
ATOM      3  C   UNL     1      -3.769  -3.886   3.260  0.00  0.00    +0.000 C 
ENDBRANCH   1   3
BRANCH   1   4
ATOM      4  C   UNL     1      -4.703  -1.954   2.036  0.00  0.00    +0.000 C 
ATOM      5  C   UNL     1      -5.867  -1.389   2.846  0.00  0.00    +0.000 C 
ENDBRANCH   1   4
BRANCH   1   6
ATOM      6  C   UNL     1      -3.938  -3.913   0.819  0.00  0.00    +0.000 C 
ATOM      7  C   UNL     1      -3.366  -5.324   0.937  0.00  0.00    +0.000 C 
ENDBRANCH   1   6
TORSDOF 3
ENDMDL
MODEL 4
REMARK VINA RESULT:    -2.856      0.582      2.493
REMARK INTER + INTRA:          -3.510
REMARK INTER:                  -3.355
REMARK INTRA:                  -0.155
REMARK UNBOUND:                -0.153
REMARK  Name = C:\DDRIVE\PROJECT\rmpr\authml\backend\results\ligand_1764508386960.pdb
REMARK  6 active torsions:
REMARK  status: ('A' for Active; 'I' for Inactive)
REMARK    1  A    between atoms: C_1  and  C_2
REMARK    2  A    between atoms: C_2  and  N_3
REMARK    3  A    between atoms: N_3  and  C_4
REMARK    4  A    between atoms: N_3  and  C_6
REMARK    5  A    between atoms: C_4  and  C_5
REMARK    6  A    between atoms: C_6  and  C_7
REMARK                            x       y       z     vdW  Elec       q    Type
REMARK                         _______ _______ _______ _____ _____    ______ ____
ROOT
ATOM      1  N   UNL     1      -4.342  -2.938   2.143  0.00  0.00    +0.000 NA
ENDROOT
BRANCH   1   3
ATOM      2  C   UNL     1      -6.002  -1.228   2.899  0.00  0.00    +0.000 C 
ATOM      3  C   UNL     1      -5.741  -2.683   2.520  0.00  0.00    +0.000 C 
ENDBRANCH   1   3
BRANCH   1   4
ATOM      4  C   UNL     1      -3.551  -3.611   3.186  0.00  0.00    +0.000 C 
ATOM      5  C   UNL     1      -2.495  -2.771   3.899  0.00  0.00    +0.000 C 
ENDBRANCH   1   4
BRANCH   1   6
ATOM      6  C   UNL     1      -4.224  -3.635   0.852  0.00  0.00    +0.000 C 
ATOM      7  C   UNL     1      -3.547  -4.999   0.967  0.00  0.00    +0.000 C 
ENDBRANCH   1   6
TORSDOF 3
ENDMDL
MODEL 5
REMARK VINA RESULT:    -2.766      0.637      2.899
REMARK INTER + INTRA:          -3.404
REMARK INTER:                  -3.248
REMARK INTRA:                  -0.156
REMARK UNBOUND:                -0.153
REMARK  Name = C:\DDRIVE\PROJECT\rmpr\authml\backend\results\ligand_1764508386960.pdb
REMARK  6 active torsions:
REMARK  status: ('A' for Active; 'I' for Inactive)
REMARK    1  A    between atoms: C_1  and  C_2
REMARK    2  A    between atoms: C_2  and  N_3
REMARK    3  A    between atoms: N_3  and  C_4
REMARK    4  A    between atoms: N_3  and  C_6
REMARK    5  A    between atoms: C_4  and  C_5
REMARK    6  A    between atoms: C_6  and  C_7
REMARK                            x       y       z     vdW  Elec       q    Type
REMARK                         _______ _______ _______ _____ _____    ______ ____
ROOT
ATOM      1  N   UNL     1      -3.923  -2.931   1.726  0.00  0.00    +0.000 NA
ENDROOT
BRANCH   1   3
ATOM      2  C   UNL     1      -3.657  -5.373   1.258  0.00  0.00    +0.000 C 
ATOM      3  C   UNL     1      -4.192  -4.025   0.779  0.00  0.00    +0.000 C 
ENDBRANCH   1   3
BRANCH   1   4
ATOM      4  C   UNL     1      -4.858  -1.798   1.616  0.00  0.00    +0.000 C 
ATOM      5  C   UNL     1      -5.865  -1.625   2.750  0.00  0.00    +0.000 C 
ENDBRANCH   1   4
BRANCH   1   6
ATOM      6  C   UNL     1      -3.817  -3.402   3.117  0.00  0.00    +0.000 C 
ATOM      7  C   UNL     1      -2.567  -2.890   3.830  0.00  0.00    +0.000 C 
ENDBRANCH   1   6
TORSDOF 3
ENDMDL
MODEL 6
REMARK VINA RESULT:    -2.686      1.199      2.647
REMARK INTER + INTRA:          -3.310
REMARK INTER:                  -3.156
REMARK INTRA:                  -0.154
REMARK UNBOUND:                -0.153
REMARK  Name = C:\DDRIVE\PROJECT\rmpr\authml\backend\results\ligand_1764508386960.pdb
REMARK  6 active torsions:
REMARK  status: ('A' for Active; 'I' for Inactive)
REMARK    1  A    between atoms: C_1  and  C_2
REMARK    2  A    between atoms: C_2  and  N_3
REMARK    3  A    between atoms: N_3  and  C_4
REMARK    4  A    between atoms: N_3  and  C_6
REMARK    5  A    between atoms: C_4  and  C_5
REMARK    6  A    between atoms: C_6  and  C_7
REMARK                            x       y       z     vdW  Elec       q    Type
REMARK                         _______ _______ _______ _____ _____    ______ ____
ROOT
ATOM      1  N   UNL     1      -3.868  -3.607   1.490  0.00  0.00    +0.000 NA
ENDROOT
BRANCH   1   3
ATOM      2  C   UNL     1      -2.780  -2.938   3.639  0.00  0.00    +0.000 C 
ATOM      3  C   UNL     1      -3.897  -3.723   2.957  0.00  0.00    +0.000 C 
ENDBRANCH   1   3
BRANCH   1   4
ATOM      4  C   UNL     1      -3.637  -4.883   0.791  0.00  0.00    +0.000 C 
ATOM      5  C   UNL     1      -3.744  -6.155   1.626  0.00  0.00    +0.000 C 
ENDBRANCH   1   4
BRANCH   1   6
ATOM      6  C   UNL     1      -5.052  -2.913   0.956  0.00  0.00    +0.000 C 
ATOM      7  C   UNL     1      -4.900  -1.393   0.943  0.00  0.00    +0.000 C 
ENDBRANCH   1   6
TORSDOF 3
ENDMDL
MODEL 7
REMARK VINA RESULT:    -2.544      1.410      2.663
REMARK INTER + INTRA:          -3.143
REMARK INTER:                  -2.994
REMARK INTRA:                  -0.150
REMARK UNBOUND:                -0.153
REMARK  Name = C:\DDRIVE\PROJECT\rmpr\authml\backend\results\ligand_1764508386960.pdb
REMARK  6 active torsions:
REMARK  status: ('A' for Active; 'I' for Inactive)
REMARK    1  A    between atoms: C_1  and  C_2
REMARK    2  A    between atoms: C_2  and  N_3
REMARK    3  A    between atoms: N_3  and  C_4
REMARK    4  A    between atoms: N_3  and  C_6
REMARK    5  A    between atoms: C_4  and  C_5
REMARK    6  A    between atoms: C_6  and  C_7
REMARK                            x       y       z     vdW  Elec       q    Type
REMARK                         _______ _______ _______ _____ _____    ______ ____
ROOT
ATOM      1  N   UNL     1      -4.287  -3.426   1.984  0.00  0.00    +0.000 NA
ENDROOT
BRANCH   1   3
ATOM      2  C   UNL     1      -2.616  -2.893   3.766  0.00  0.00    +0.000 C 
ATOM      3  C   UNL     1      -3.498  -3.952   3.108  0.00  0.00    +0.000 C 
ENDBRANCH   1   3
BRANCH   1   4
ATOM      4  C   UNL     1      -3.974  -4.048   0.686  0.00  0.00    +0.000 C 
ATOM      5  C   UNL     1      -4.811  -3.604  -0.510  0.00  0.00    +0.000 C 
ENDBRANCH   1   4
BRANCH   1   6
ATOM      6  C   UNL     1      -5.735  -3.451   2.251  0.00  0.00    +0.000 C 
ATOM      7  C   UNL     1      -6.169  -4.653   3.088  0.00  0.00    +0.000 C 
ENDBRANCH   1   6
TORSDOF 3
ENDMDL
MODEL 8
REMARK VINA RESULT:    -2.528     13.709     14.809
REMARK INTER + INTRA:          -3.125
REMARK INTER:                  -2.988
REMARK INTRA:                  -0.137
REMARK UNBOUND:                -0.153
REMARK  Name = C:\DDRIVE\PROJECT\rmpr\authml\backend\results\ligand_1764508386960.pdb
REMARK  6 active torsions:
REMARK  status: ('A' for Active; 'I' for Inactive)
REMARK    1  A    between atoms: C_1  and  C_2
REMARK    2  A    between atoms: C_2  and  N_3
REMARK    3  A    between atoms: N_3  and  C_4
REMARK    4  A    between atoms: N_3  and  C_6
REMARK    5  A    between atoms: C_4  and  C_5
REMARK    6  A    between atoms: C_6  and  C_7
REMARK                            x       y       z     vdW  Elec       q    Type
REMARK                         _______ _______ _______ _____ _____    ______ ____
ROOT
ATOM      1  N   UNL     1       9.767  -4.942  -1.936  0.00  0.00    +0.000 NA
ENDROOT
BRANCH   1   3
ATOM      2  C   UNL     1      10.836  -3.017  -3.121  0.00  0.00    +0.000 C 
ATOM      3  C   UNL     1      10.229  -3.549  -1.825  0.00  0.00    +0.000 C 
ENDBRANCH   1   3
BRANCH   1   4
ATOM      4  C   UNL     1       8.416  -5.171  -1.396  0.00  0.00    +0.000 C 
ATOM      5  C   UNL     1       8.321  -5.956  -0.091  0.00  0.00    +0.000 C 
ENDBRANCH   1   4
BRANCH   1   6
ATOM      6  C   UNL     1       9.891  -5.470  -3.305  0.00  0.00    +0.000 C 
ATOM      7  C   UNL     1       8.706  -6.341  -3.721  0.00  0.00    +0.000 C 
ENDBRANCH   1   6
TORSDOF 3
ENDMDL
MODEL 9
REMARK VINA RESULT:    -2.480     14.226     15.413
REMARK INTER + INTRA:          -3.069
REMARK INTER:                  -2.906
REMARK INTRA:                  -0.163
REMARK UNBOUND:                -0.153
REMARK  Name = C:\DDRIVE\PROJECT\rmpr\authml\backend\results\ligand_1764508386960.pdb
REMARK  6 active torsions:
REMARK  status: ('A' for Active; 'I' for Inactive)
REMARK    1  A    between atoms: C_1  and  C_2
REMARK    2  A    between atoms: C_2  and  N_3
REMARK    3  A    between atoms: N_3  and  C_4
REMARK    4  A    between atoms: N_3  and  C_6
REMARK    5  A    between atoms: C_4  and  C_5
REMARK    6  A    between atoms: C_6  and  C_7
REMARK                            x       y       z     vdW  Elec       q    Type
REMARK                         _______ _______ _______ _____ _____    ______ ____
ROOT
ATOM      1  N   UNL     1      10.084  -4.334  -1.878  0.00  0.00    +0.000 NA
ENDROOT
BRANCH   1   3
ATOM      2  C   UNL     1      12.149  -4.164  -3.277  0.00  0.00    +0.000 C 
ATOM      3  C   UNL     1      10.656  -3.870  -3.151  0.00  0.00    +0.000 C 
ENDBRANCH   1   3
BRANCH   1   4
ATOM      4  C   UNL     1       9.932  -3.275  -0.865  0.00  0.00    +0.000 C 
ATOM      5  C   UNL     1       9.907  -1.836  -1.373  0.00  0.00    +0.000 C 
ENDBRANCH   1   4
BRANCH   1   6
ATOM      6  C   UNL     1       8.827  -5.078  -2.063  0.00  0.00    +0.000 C 
ATOM      7  C   UNL     1       8.872  -6.048  -3.242  0.00  0.00    +0.000 C 
ENDBRANCH   1   6
TORSDOF 3
ENDMDL
