MODEL 1
REMARK VINA RESULT:    -2.941      0.000      0.000
REMARK INTER + INTRA:          -3.611
REMARK INTER:                  -3.456
REMARK INTRA:                  -0.155
REMARK UNBOUND:                -0.155
REMARK  Name = C:\DDRIVE\PROJECT\authml\backend\results\ligand_1764478494469.pdb
REMARK  6 active torsions:
REMARK  status: ('A' for Active; 'I' for Inactive)
REMARK    1  A    between atoms: C_1  and  C_2
REMARK    2  A    between atoms: C_2  and  N_3
REMARK    3  A    between atoms: N_3  and  C_4
REMARK    4  A    between atoms: N_3  and  C_6
REMARK    5  A    between atoms: C_4  and  C_5
REMARK    6  A    between atoms: C_6  and  C_7
REMARK                            x       y       z     vdW  Elec       q    Type
REMARK                         _______ _______ _______ _____ _____    ______ ____
ROOT
ATOM      1  N   UNL     1      -4.545  -3.189   2.255  0.00  0.00    +0.000 NA
ENDROOT
BRANCH   1   3
ATOM      2  C   UNL     1      -6.049  -1.262   2.799  0.00  0.00    +0.000 C 
ATOM      3  C   UNL     1      -4.634  -1.737   2.472  0.00  0.00    +0.000 C 
ENDBRANCH   1   3
BRANCH   1   4
ATOM      4  C   UNL     1      -4.233  -3.570   0.869  0.00  0.00    +0.000 C 
ATOM      5  C   UNL     1      -3.599  -4.945   0.662  0.00  0.00    +0.000 C 
ENDBRANCH   1   4
BRANCH   1   6
ATOM      6  C   UNL     1      -3.643  -3.851   3.211  0.00  0.00    +0.000 C 
ATOM      7  C   UNL     1      -2.602  -2.904   3.802  0.00  0.00    +0.000 C 
ENDBRANCH   1   6
TORSDOF 3
ENDMDL
MODEL 2
REMARK VINA RESULT:    -2.928      0.148      3.224
REMARK INTER + INTRA:          -3.596
REMARK INTER:                  -3.440
REMARK INTRA:                  -0.156
REMARK UNBOUND:                -0.155
REMARK  Name = C:\DDRIVE\PROJECT\authml\backend\results\ligand_1764478494469.pdb
REMARK  6 active torsions:
REMARK  status: ('A' for Active; 'I' for Inactive)
REMARK    1  A    between atoms: C_1  and  C_2
REMARK    2  A    between atoms: C_2  and  N_3
REMARK    3  A    between atoms: N_3  and  C_4
REMARK    4  A    between atoms: N_3  and  C_6
REMARK    5  A    between atoms: C_4  and  C_5
REMARK    6  A    between atoms: C_6  and  C_7
REMARK                            x       y       z     vdW  Elec       q    Type
REMARK                         _______ _______ _______ _____ _____    ______ ____
ROOT
ATOM      1  N   UNL     1      -4.536  -3.220   2.114  0.00  0.00    +0.000 NA
ENDROOT
BRANCH   1   3
ATOM      2  C   UNL     1      -3.470  -4.997   0.708  0.00  0.00    +0.000 C 
ATOM      3  C   UNL     1      -4.172  -3.641   0.752  0.00  0.00    +0.000 C 
ENDBRANCH   1   3
BRANCH   1   4
ATOM      4  C   UNL     1      -3.715  -3.832   3.171  0.00  0.00    +0.000 C 
ATOM      5  C   UNL     1      -2.640  -2.948   3.801  0.00  0.00    +0.000 C 
ENDBRANCH   1   4
BRANCH   1   6
ATOM      6  C   UNL     1      -4.596  -1.757   2.258  0.00  0.00    +0.000 C 
ATOM      7  C   UNL     1      -5.899  -1.272   2.887  0.00  0.00    +0.000 C 
ENDBRANCH   1   6
TORSDOF 3
ENDMDL
MODEL 3
REMARK VINA RESULT:    -2.913      0.083      3.237
REMARK INTER + INTRA:          -3.579
REMARK INTER:                  -3.425
REMARK INTRA:                  -0.154
REMARK UNBOUND:                -0.155
REMARK  Name = C:\DDRIVE\PROJECT\authml\backend\results\ligand_1764478494469.pdb
REMARK  6 active torsions:
REMARK  status: ('A' for Active; 'I' for Inactive)
REMARK    1  A    between atoms: C_1  and  C_2
REMARK    2  A    between atoms: C_2  and  N_3
REMARK    3  A    between atoms: N_3  and  C_4
REMARK    4  A    between atoms: N_3  and  C_6
REMARK    5  A    between atoms: C_4  and  C_5
REMARK    6  A    between atoms: C_6  and  C_7
REMARK                            x       y       z     vdW  Elec       q    Type
REMARK                         _______ _______ _______ _____ _____    ______ ____
ROOT
ATOM      1  N   UNL     1      -4.583  -3.207   2.262  0.00  0.00    +0.000 NA
ENDROOT
BRANCH   1   3
ATOM      2  C   UNL     1      -2.643  -2.883   3.812  0.00  0.00    +0.000 C 
ATOM      3  C   UNL     1      -3.624  -3.860   3.166  0.00  0.00    +0.000 C 
ENDBRANCH   1   3
BRANCH   1   4
ATOM      4  C   UNL     1      -4.719  -1.758   2.479  0.00  0.00    +0.000 C 
ATOM      5  C   UNL     1      -6.124  -1.238   2.777  0.00  0.00    +0.000 C 
ENDBRANCH   1   4
BRANCH   1   6
ATOM      6  C   UNL     1      -4.330  -3.518   0.846  0.00  0.00    +0.000 C 
ATOM      7  C   UNL     1      -3.705  -4.895   0.640  0.00  0.00    +0.000 C 
ENDBRANCH   1   6
TORSDOF 3
ENDMDL
MODEL 4
REMARK VINA RESULT:    -2.878      0.595      2.525
REMARK INTER + INTRA:          -3.538
REMARK INTER:                  -3.382
REMARK INTRA:                  -0.156
REMARK UNBOUND:                -0.155
REMARK  Name = C:\DDRIVE\PROJECT\authml\backend\results\ligand_1764478494469.pdb
REMARK  6 active torsions:
REMARK  status: ('A' for Active; 'I' for Inactive)
REMARK    1  A    between atoms: C_1  and  C_2
REMARK    2  A    between atoms: C_2  and  N_3
REMARK    3  A    between atoms: N_3  and  C_4
REMARK    4  A    between atoms: N_3  and  C_6
REMARK    5  A    between atoms: C_4  and  C_5
REMARK    6  A    between atoms: C_6  and  C_7
REMARK                            x       y       z     vdW  Elec       q    Type
REMARK                         _______ _______ _______ _____ _____    ______ ____
ROOT
ATOM      1  N   UNL     1      -4.306  -3.008   2.004  0.00  0.00    +0.000 NA
ENDROOT
BRANCH   1   3
ATOM      2  C   UNL     1      -5.939  -1.309   2.850  0.00  0.00    +0.000 C 
ATOM      3  C   UNL     1      -5.686  -2.761   2.449  0.00  0.00    +0.000 C 
ENDBRANCH   1   3
BRANCH   1   4
ATOM      4  C   UNL     1      -3.478  -3.723   2.990  0.00  0.00    +0.000 C 
ATOM      5  C   UNL     1      -2.547  -2.870   3.849  0.00  0.00    +0.000 C 
ENDBRANCH   1   4
BRANCH   1   6
ATOM      6  C   UNL     1      -4.242  -3.651   0.682  0.00  0.00    +0.000 C 
ATOM      7  C   UNL     1      -3.540  -5.006   0.710  0.00  0.00    +0.000 C 
ENDBRANCH   1   6
TORSDOF 3
ENDMDL
MODEL 5
REMARK VINA RESULT:    -2.841      0.613      2.441
REMARK INTER + INTRA:          -3.494
REMARK INTER:                  -3.349
REMARK INTRA:                  -0.145
REMARK UNBOUND:                -0.155
REMARK  Name = C:\DDRIVE\PROJECT\authml\backend\results\ligand_1764478494469.pdb
REMARK  6 active torsions:
REMARK  status: ('A' for Active; 'I' for Inactive)
REMARK    1  A    between atoms: C_1  and  C_2
REMARK    2  A    between atoms: C_2  and  N_3
REMARK    3  A    between atoms: N_3  and  C_4
REMARK    4  A    between atoms: N_3  and  C_6
REMARK    5  A    between atoms: C_4  and  C_5
REMARK    6  A    between atoms: C_6  and  C_7
REMARK                            x       y       z     vdW  Elec       q    Type
REMARK                         _______ _______ _______ _____ _____    ______ ____
ROOT
ATOM      1  N   UNL     1      -4.272  -3.060   1.923  0.00  0.00    +0.000 NA
ENDROOT
BRANCH   1   3
ATOM      2  C   UNL     1      -2.583  -2.907   3.765  0.00  0.00    +0.000 C 
ATOM      3  C   UNL     1      -3.732  -3.693   3.136  0.00  0.00    +0.000 C 
ENDBRANCH   1   3
BRANCH   1   4
ATOM      4  C   UNL     1      -4.087  -3.856   0.699  0.00  0.00    +0.000 C 
ATOM      5  C   UNL     1      -3.405  -5.214   0.861  0.00  0.00    +0.000 C 
ENDBRANCH   1   4
BRANCH   1   6
ATOM      6  C   UNL     1      -5.671  -2.635   2.080  0.00  0.00    +0.000 C 
ATOM      7  C   UNL     1      -5.815  -1.343   2.881  0.00  0.00    +0.000 C 
ENDBRANCH   1   6
TORSDOF 3
ENDMDL
MODEL 6
REMARK VINA RESULT:    -2.747      1.528      3.098
REMARK INTER + INTRA:          -3.383
REMARK INTER:                  -3.183
REMARK INTRA:                  -0.201
REMARK UNBOUND:                -0.155
REMARK  Name = C:\DDRIVE\PROJECT\authml\backend\results\ligand_1764478494469.pdb
REMARK  6 active torsions:
REMARK  status: ('A' for Active; 'I' for Inactive)
REMARK    1  A    between atoms: C_1  and  C_2
REMARK    2  A    between atoms: C_2  and  N_3
REMARK    3  A    between atoms: N_3  and  C_4
REMARK    4  A    between atoms: N_3  and  C_6
REMARK    5  A    between atoms: C_4  and  C_5
REMARK    6  A    between atoms: C_6  and  C_7
REMARK                            x       y       z     vdW  Elec       q    Type
REMARK                         _______ _______ _______ _____ _____    ______ ____
ROOT
ATOM      1  N   UNL     1      -4.229  -4.804   2.857  0.00  0.00    +0.000 NA
ENDROOT
BRANCH   1   3
ATOM      2  C   UNL     1      -2.711  -2.993   3.685  0.00  0.00    +0.000 C 
ATOM      3  C   UNL     1      -3.496  -3.576   2.512  0.00  0.00    +0.000 C 
ENDBRANCH   1   3
BRANCH   1   4
ATOM      4  C   UNL     1      -5.663  -4.594   3.111  0.00  0.00    +0.000 C 
ATOM      5  C   UNL     1      -6.290  -3.338   2.508  0.00  0.00    +0.000 C 
ENDBRANCH   1   4
BRANCH   1   6
ATOM      6  C   UNL     1      -4.008  -5.887   1.886  0.00  0.00    +0.000 C 
ATOM      7  C   UNL     1      -3.352  -5.406   0.594  0.00  0.00    +0.000 C 
ENDBRANCH   1   6
TORSDOF 3
ENDMDL
MODEL 7
REMARK VINA RESULT:    -2.727      1.564      3.109
REMARK INTER + INTRA:          -3.360
REMARK INTER:                  -3.228
REMARK INTRA:                  -0.133
REMARK UNBOUND:                -0.155
REMARK  Name = C:\DDRIVE\PROJECT\authml\backend\results\ligand_1764478494469.pdb
REMARK  6 active torsions:
REMARK  status: ('A' for Active; 'I' for Inactive)
REMARK    1  A    between atoms: C_1  and  C_2
REMARK    2  A    between atoms: C_2  and  N_3
REMARK    3  A    between atoms: N_3  and  C_4
REMARK    4  A    between atoms: N_3  and  C_6
REMARK    5  A    between atoms: C_4  and  C_5
REMARK    6  A    between atoms: C_6  and  C_7
REMARK                            x       y       z     vdW  Elec       q    Type
REMARK                         _______ _______ _______ _____ _____    ______ ____
ROOT
ATOM      1  N   UNL     1      -3.666  -4.493   2.003  0.00  0.00    +0.000 NA
ENDROOT
BRANCH   1   3
ATOM      2  C   UNL     1      -4.676  -2.768   0.494  0.00  0.00    +0.000 C 
ATOM      3  C   UNL     1      -3.917  -4.089   0.611  0.00  0.00    +0.000 C 
ENDBRANCH   1   3
BRANCH   1   4
ATOM      4  C   UNL     1      -3.894  -3.424   2.988  0.00  0.00    +0.000 C 
ATOM      5  C   UNL     1      -2.665  -2.901   3.729  0.00  0.00    +0.000 C 
ENDBRANCH   1   4
BRANCH   1   6
ATOM      6  C   UNL     1      -4.380  -5.726   2.372  0.00  0.00    +0.000 C 
ATOM      7  C   UNL     1      -3.787  -6.975   1.727  0.00  0.00    +0.000 C 
ENDBRANCH   1   6
TORSDOF 3
ENDMDL
MODEL 8
REMARK VINA RESULT:    -2.696      1.045      2.936
REMARK INTER + INTRA:          -3.324
REMARK INTER:                  -3.192
REMARK INTRA:                  -0.133
REMARK UNBOUND:                -0.155
REMARK  Name = C:\DDRIVE\PROJECT\authml\backend\results\ligand_1764478494469.pdb
REMARK  6 active torsions:
REMARK  status: ('A' for Active; 'I' for Inactive)
REMARK    1  A    between atoms: C_1  and  C_2
REMARK    2  A    between atoms: C_2  and  N_3
REMARK    3  A    between atoms: N_3  and  C_4
REMARK    4  A    between atoms: N_3  and  C_6
REMARK    5  A    between atoms: C_4  and  C_5
REMARK    6  A    between atoms: C_6  and  C_7
REMARK                            x       y       z     vdW  Elec       q    Type
REMARK                         _______ _______ _______ _____ _____    ______ ____
ROOT
ATOM      1  N   UNL     1      -3.684  -3.710   1.393  0.00  0.00    +0.000 NA
ENDROOT
BRANCH   1   3
ATOM      2  C   UNL     1      -4.032  -6.140   1.884  0.00  0.00    +0.000 C 
ATOM      3  C   UNL     1      -3.549  -5.085   0.890  0.00  0.00    +0.000 C 
ENDBRANCH   1   3
BRANCH   1   4
ATOM      4  C   UNL     1      -4.675  -2.900   0.666  0.00  0.00    +0.000 C 
ATOM      5  C   UNL     1      -5.091  -1.580   1.314  0.00  0.00    +0.000 C 
ENDBRANCH   1   4
BRANCH   1   6
ATOM      6  C   UNL     1      -3.909  -3.657   2.846  0.00  0.00    +0.000 C 
ATOM      7  C   UNL     1      -2.725  -3.072   3.612  0.00  0.00    +0.000 C 
ENDBRANCH   1   6
TORSDOF 3
ENDMDL
MODEL 9
REMARK VINA RESULT:    -2.518      1.745      3.872
REMARK INTER + INTRA:          -3.115
REMARK INTER:                  -2.936
REMARK INTRA:                  -0.179
REMARK UNBOUND:                -0.155
REMARK  Name = C:\DDRIVE\PROJECT\authml\backend\results\ligand_1764478494469.pdb
REMARK  6 active torsions:
REMARK  status: ('A' for Active; 'I' for Inactive)
REMARK    1  A    between atoms: C_1  and  C_2
REMARK    2  A    between atoms: C_2  and  N_3
REMARK    3  A    between atoms: N_3  and  C_4
REMARK    4  A    between atoms: N_3  and  C_6
REMARK    5  A    between atoms: C_4  and  C_5
REMARK    6  A    between atoms: C_6  and  C_7
REMARK                            x       y       z     vdW  Elec       q    Type
REMARK                         _______ _______ _______ _____ _____    ______ ____
ROOT
ATOM      1  N   UNL     1      -4.390  -4.824   1.795  0.00  0.00    +0.000 NA
ENDROOT
BRANCH   1   3
ATOM      2  C   UNL     1      -2.973  -6.471   0.550  0.00  0.00    +0.000 C 
ATOM      3  C   UNL     1      -3.670  -6.106   1.859  0.00  0.00    +0.000 C 
ENDBRANCH   1   3
BRANCH   1   4
ATOM      4  C   UNL     1      -4.366  -4.060   3.053  0.00  0.00    +0.000 C 
ATOM      5  C   UNL     1      -3.041  -3.398   3.427  0.00  0.00    +0.000 C 
ENDBRANCH   1   4
BRANCH   1   6
ATOM      6  C   UNL     1      -3.970  -3.995   0.654  0.00  0.00    +0.000 C 
ATOM      7  C   UNL     1      -4.985  -2.911   0.300  0.00  0.00    +0.000 C 
ENDBRANCH   1   6
TORSDOF 3
ENDMDL
