MODEL 1
REMARK VINA RESULT:    -3.134      0.000      0.000
REMARK INTER + INTRA:          -3.833
REMARK INTER:                  -3.683
REMARK INTRA:                  -0.150
REMARK UNBOUND:                -0.150
REMARK  Name = C:\Users\Bellamkonda Sowmya\Downloads\flask-backend\results\0a2e0d27-2b5a-4922-921f-b7c5066f9444_ligand.pdb
REMARK  6 active torsions:
REMARK  status: ('A' for Active; 'I' for Inactive)
REMARK    1  A    between atoms: C1_1  and  C2_2
REMARK    2  A    between atoms: C2_2  and  N1_3
REMARK    3  A    between atoms: N1_3  and  C3_4
REMARK    4  A    between atoms: N1_3  and  C5_6
REMARK    5  A    between atoms: C3_4  and  C4_5
REMARK    6  A    between atoms: C5_6  and  C6_7
REMARK                            x       y       z     vdW  Elec       q    Type
REMARK                         _______ _______ _______ _____ _____    ______ ____
ROOT
ATOM      1  N1  UNL     1       5.681   2.801   5.207  0.00  0.00    +0.000 NA
ENDROOT
BRANCH   1   3
ATOM      2  C1  UNL     1       7.082   0.931   4.413  0.00  0.00    +0.000 C 
ATOM      3  C2  UNL     1       7.058   2.396   4.840  0.00  0.00    +0.000 C 
ENDBRANCH   1   3
BRANCH   1   4
ATOM      4  C3  UNL     1       4.675   2.041   4.430  0.00  0.00    +0.000 C 
ATOM      5  C4  UNL     1       3.277   2.290   4.988  0.00  0.00    +0.000 C 
ENDBRANCH   1   4
BRANCH   1   6
ATOM      6  C5  UNL     1       5.492   4.261   5.042  0.00  0.00    +0.000 C 
ATOM      7  C6  UNL     1       5.477   4.950   6.403  0.00  0.00    +0.000 C 
ENDBRANCH   1   6
TORSDOF 3
ENDMDL
MODEL 2
REMARK VINA RESULT:    -3.098      0.179      3.134
REMARK INTER + INTRA:          -3.791
REMARK INTER:                  -3.638
REMARK INTRA:                  -0.152
REMARK UNBOUND:                -0.150
REMARK  Name = C:\Users\Bellamkonda Sowmya\Downloads\flask-backend\results\0a2e0d27-2b5a-4922-921f-b7c5066f9444_ligand.pdb
REMARK  6 active torsions:
REMARK  status: ('A' for Active; 'I' for Inactive)
REMARK    1  A    between atoms: C1_1  and  C2_2
REMARK    2  A    between atoms: C2_2  and  N1_3
REMARK    3  A    between atoms: N1_3  and  C3_4
REMARK    4  A    between atoms: N1_3  and  C5_6
REMARK    5  A    between atoms: C3_4  and  C4_5
REMARK    6  A    between atoms: C5_6  and  C6_7
REMARK                            x       y       z     vdW  Elec       q    Type
REMARK                         _______ _______ _______ _____ _____    ______ ____
ROOT
ATOM      1  N1  UNL     1       5.607   2.809   5.295  0.00  0.00    +0.000 NA
ENDROOT
BRANCH   1   3
ATOM      2  C1  UNL     1       5.455   4.987   6.448  0.00  0.00    +0.000 C 
ATOM      3  C2  UNL     1       5.593   4.278   5.103  0.00  0.00    +0.000 C 
ENDBRANCH   1   3
BRANCH   1   4
ATOM      4  C3  UNL     1       6.947   2.246   5.008  0.00  0.00    +0.000 C 
ATOM      5  C4  UNL     1       6.815   0.850   4.407  0.00  0.00    +0.000 C 
ENDBRANCH   1   4
BRANCH   1   6
ATOM      6  C5  UNL     1       4.565   2.154   4.472  0.00  0.00    +0.000 C 
ATOM      7  C6  UNL     1       3.190   2.353   5.102  0.00  0.00    +0.000 C 
ENDBRANCH   1   6
TORSDOF 3
ENDMDL
MODEL 3
REMARK VINA RESULT:    -3.094      1.625      3.033
REMARK INTER + INTRA:          -3.787
REMARK INTER:                  -3.583
REMARK INTRA:                  -0.204
REMARK UNBOUND:                -0.150
REMARK  Name = C:\Users\Bellamkonda Sowmya\Downloads\flask-backend\results\0a2e0d27-2b5a-4922-921f-b7c5066f9444_ligand.pdb
REMARK  6 active torsions:
REMARK  status: ('A' for Active; 'I' for Inactive)
REMARK    1  A    between atoms: C1_1  and  C2_2
REMARK    2  A    between atoms: C2_2  and  N1_3
REMARK    3  A    between atoms: N1_3  and  C3_4
REMARK    4  A    between atoms: N1_3  and  C5_6
REMARK    5  A    between atoms: C3_4  and  C4_5
REMARK    6  A    between atoms: C5_6  and  C6_7
REMARK                            x       y       z     vdW  Elec       q    Type
REMARK                         _______ _______ _______ _____ _____    ______ ____
ROOT
ATOM      1  N1  UNL     1       6.837   2.535   4.690  0.00  0.00    +0.000 NA
ENDROOT
BRANCH   1   3
ATOM      2  C1  UNL     1       6.178   3.020   7.019  0.00  0.00    +0.000 C 
ATOM      3  C2  UNL     1       7.291   2.523   6.100  0.00  0.00    +0.000 C 
ENDBRANCH   1   3
BRANCH   1   4
ATOM      4  C3  UNL     1       6.098   3.780   4.378  0.00  0.00    +0.000 C 
ATOM      5  C4  UNL     1       4.901   3.474   3.483  0.00  0.00    +0.000 C 
ENDBRANCH   1   4
BRANCH   1   6
ATOM      6  C5  UNL     1       6.020   1.338   4.382  0.00  0.00    +0.000 C 
ATOM      7  C6  UNL     1       6.801   0.067   4.705  0.00  0.00    +0.000 C 
ENDBRANCH   1   6
TORSDOF 3
ENDMDL
MODEL 4
REMARK VINA RESULT:    -3.087      1.644      2.672
REMARK INTER + INTRA:          -3.778
REMARK INTER:                  -3.578
REMARK INTRA:                  -0.200
REMARK UNBOUND:                -0.150
REMARK  Name = C:\Users\Bellamkonda Sowmya\Downloads\flask-backend\results\0a2e0d27-2b5a-4922-921f-b7c5066f9444_ligand.pdb
REMARK  6 active torsions:
REMARK  status: ('A' for Active; 'I' for Inactive)
REMARK    1  A    between atoms: C1_1  and  C2_2
REMARK    2  A    between atoms: C2_2  and  N1_3
REMARK    3  A    between atoms: N1_3  and  C3_4
REMARK    4  A    between atoms: N1_3  and  C5_6
REMARK    5  A    between atoms: C3_4  and  C4_5
REMARK    6  A    between atoms: C5_6  and  C6_7
REMARK                            x       y       z     vdW  Elec       q    Type
REMARK                         _______ _______ _______ _____ _____    ______ ____
ROOT
ATOM      1  N1  UNL     1       6.891   2.522   4.685  0.00  0.00    +0.000 NA
ENDROOT
BRANCH   1   3
ATOM      2  C1  UNL     1       4.897   3.467   3.579  0.00  0.00    +0.000 C 
ATOM      3  C2  UNL     1       6.126   3.765   4.434  0.00  0.00    +0.000 C 
ENDBRANCH   1   3
BRANCH   1   4
ATOM      4  C3  UNL     1       6.099   1.325   4.321  0.00  0.00    +0.000 C 
ATOM      5  C4  UNL     1       6.867   0.055   4.678  0.00  0.00    +0.000 C 
ENDBRANCH   1   4
BRANCH   1   6
ATOM      6  C5  UNL     1       7.349   2.452   6.093  0.00  0.00    +0.000 C 
ATOM      7  C6  UNL     1       6.251   2.948   7.031  0.00  0.00    +0.000 C 
ENDBRANCH   1   6
TORSDOF 3
ENDMDL
MODEL 5
REMARK VINA RESULT:    -2.988      1.389      3.361
REMARK INTER + INTRA:          -3.662
REMARK INTER:                  -3.464
REMARK INTRA:                  -0.198
REMARK UNBOUND:                -0.150
REMARK  Name = C:\Users\Bellamkonda Sowmya\Downloads\flask-backend\results\0a2e0d27-2b5a-4922-921f-b7c5066f9444_ligand.pdb
REMARK  6 active torsions:
REMARK  status: ('A' for Active; 'I' for Inactive)
REMARK    1  A    between atoms: C1_1  and  C2_2
REMARK    2  A    between atoms: C2_2  and  N1_3
REMARK    3  A    between atoms: N1_3  and  C3_4
REMARK    4  A    between atoms: N1_3  and  C5_6
REMARK    5  A    between atoms: C3_4  and  C4_5
REMARK    6  A    between atoms: C5_6  and  C6_7
REMARK                            x       y       z     vdW  Elec       q    Type
REMARK                         _______ _______ _______ _____ _____    ______ ____
ROOT
ATOM      1  N1  UNL     1       5.593   1.899   5.275  0.00  0.00    +0.000 NA
ENDROOT
BRANCH   1   3
ATOM      2  C1  UNL     1       4.976   3.490   3.492  0.00  0.00    +0.000 C 
ATOM      3  C2  UNL     1       4.474   2.653   4.665  0.00  0.00    +0.000 C 
ENDBRANCH   1   3
BRANCH   1   4
ATOM      4  C3  UNL     1       6.629   2.815   5.805  0.00  0.00    +0.000 C 
ATOM      5  C4  UNL     1       6.456   2.993   7.310  0.00  0.00    +0.000 C 
ENDBRANCH   1   4
BRANCH   1   6
ATOM      6  C5  UNL     1       6.175   0.936   4.311  0.00  0.00    +0.000 C 
ATOM      7  C6  UNL     1       7.690   0.869   4.479  0.00  0.00    +0.000 C 
ENDBRANCH   1   6
TORSDOF 3
ENDMDL
MODEL 6
REMARK VINA RESULT:    -2.978      1.447      1.911
REMARK INTER + INTRA:          -3.650
REMARK INTER:                  -3.440
REMARK INTRA:                  -0.210
REMARK UNBOUND:                -0.150
REMARK  Name = C:\Users\Bellamkonda Sowmya\Downloads\flask-backend\results\0a2e0d27-2b5a-4922-921f-b7c5066f9444_ligand.pdb
REMARK  6 active torsions:
REMARK  status: ('A' for Active; 'I' for Inactive)
REMARK    1  A    between atoms: C1_1  and  C2_2
REMARK    2  A    between atoms: C2_2  and  N1_3
REMARK    3  A    between atoms: N1_3  and  C3_4
REMARK    4  A    between atoms: N1_3  and  C5_6
REMARK    5  A    between atoms: C3_4  and  C4_5
REMARK    6  A    between atoms: C5_6  and  C6_7
REMARK                            x       y       z     vdW  Elec       q    Type
REMARK                         _______ _______ _______ _____ _____    ______ ____
ROOT
ATOM      1  N1  UNL     1       5.646   1.730   5.251  0.00  0.00    +0.000 NA
ENDROOT
BRANCH   1   3
ATOM      2  C1  UNL     1       7.773   0.814   4.397  0.00  0.00    +0.000 C 
ATOM      3  C2  UNL     1       6.315   0.514   4.732  0.00  0.00    +0.000 C 
ENDBRANCH   1   3
BRANCH   1   4
ATOM      4  C3  UNL     1       4.875   2.411   4.186  0.00  0.00    +0.000 C 
ATOM      5  C4  UNL     1       5.415   3.820   3.960  0.00  0.00    +0.000 C 
ENDBRANCH   1   4
BRANCH   1   6
ATOM      6  C5  UNL     1       6.624   2.652   5.874  0.00  0.00    +0.000 C 
ATOM      7  C6  UNL     1       6.434   2.680   7.388  0.00  0.00    +0.000 C 
ENDBRANCH   1   6
TORSDOF 3
ENDMDL
MODEL 7
REMARK VINA RESULT:    -2.978      0.923      2.731
REMARK INTER + INTRA:          -3.649
REMARK INTER:                  -3.472
REMARK INTRA:                  -0.178
REMARK UNBOUND:                -0.150
REMARK  Name = C:\Users\Bellamkonda Sowmya\Downloads\flask-backend\results\0a2e0d27-2b5a-4922-921f-b7c5066f9444_ligand.pdb
REMARK  6 active torsions:
REMARK  status: ('A' for Active; 'I' for Inactive)
REMARK    1  A    between atoms: C1_1  and  C2_2
REMARK    2  A    between atoms: C2_2  and  N1_3
REMARK    3  A    between atoms: N1_3  and  C3_4
REMARK    4  A    between atoms: N1_3  and  C5_6
REMARK    5  A    between atoms: C3_4  and  C4_5
REMARK    6  A    between atoms: C5_6  and  C6_7
REMARK                            x       y       z     vdW  Elec       q    Type
REMARK                         _______ _______ _______ _____ _____    ______ ____
ROOT
ATOM      1  N1  UNL     1       5.860   3.248   4.937  0.00  0.00    +0.000 NA
ENDROOT
BRANCH   1   3
ATOM      2  C1  UNL     1       5.488   5.060   6.572  0.00  0.00    +0.000 C 
ATOM      3  C2  UNL     1       5.139   4.518   5.188  0.00  0.00    +0.000 C 
ENDBRANCH   1   3
BRANCH   1   4
ATOM      4  C3  UNL     1       4.960   2.230   4.348  0.00  0.00    +0.000 C 
ATOM      5  C4  UNL     1       3.557   2.364   4.934  0.00  0.00    +0.000 C 
ENDBRANCH   1   4
BRANCH   1   6
ATOM      6  C5  UNL     1       6.500   2.744   6.174  0.00  0.00    +0.000 C 
ATOM      7  C6  UNL     1       7.761   1.954   5.833  0.00  0.00    +0.000 C 
ENDBRANCH   1   6
TORSDOF 3
ENDMDL
MODEL 8
REMARK VINA RESULT:    -2.931      0.516      2.395
REMARK INTER + INTRA:          -3.595
REMARK INTER:                  -3.425
REMARK INTRA:                  -0.170
REMARK UNBOUND:                -0.150
REMARK  Name = C:\Users\Bellamkonda Sowmya\Downloads\flask-backend\results\0a2e0d27-2b5a-4922-921f-b7c5066f9444_ligand.pdb
REMARK  6 active torsions:
REMARK  status: ('A' for Active; 'I' for Inactive)
REMARK    1  A    between atoms: C1_1  and  C2_2
REMARK    2  A    between atoms: C2_2  and  N1_3
REMARK    3  A    between atoms: N1_3  and  C3_4
REMARK    4  A    between atoms: N1_3  and  C5_6
REMARK    5  A    between atoms: C3_4  and  C4_5
REMARK    6  A    between atoms: C5_6  and  C6_7
REMARK                            x       y       z     vdW  Elec       q    Type
REMARK                         _______ _______ _______ _____ _____    ______ ____
ROOT
ATOM      1  N1  UNL     1       5.612   2.800   4.355  0.00  0.00    +0.000 NA
ENDROOT
BRANCH   1   3
ATOM      2  C1  UNL     1       7.060   0.828   4.682  0.00  0.00    +0.000 C 
ATOM      3  C2  UNL     1       6.856   2.308   4.992  0.00  0.00    +0.000 C 
ENDBRANCH   1   3
BRANCH   1   4
ATOM      4  C3  UNL     1       5.106   4.012   5.037  0.00  0.00    +0.000 C 
ATOM      5  C4  UNL     1       5.966   4.330   6.257  0.00  0.00    +0.000 C 
ENDBRANCH   1   4
BRANCH   1   6
ATOM      6  C5  UNL     1       4.578   1.739   4.314  0.00  0.00    +0.000 C 
ATOM      7  C6  UNL     1       3.312   2.207   5.025  0.00  0.00    +0.000 C 
ENDBRANCH   1   6
TORSDOF 3
ENDMDL
MODEL 9
REMARK VINA RESULT:    -2.803     23.257     24.862
REMARK INTER + INTRA:          -3.444
REMARK INTER:                  -3.253
REMARK INTRA:                  -0.191
REMARK UNBOUND:                -0.150
REMARK  Name = C:\Users\Bellamkonda Sowmya\Downloads\flask-backend\results\0a2e0d27-2b5a-4922-921f-b7c5066f9444_ligand.pdb
REMARK  6 active torsions:
REMARK  status: ('A' for Active; 'I' for Inactive)
REMARK    1  A    between atoms: C1_1  and  C2_2
REMARK    2  A    between atoms: C2_2  and  N1_3
REMARK    3  A    between atoms: N1_3  and  C3_4
REMARK    4  A    between atoms: N1_3  and  C5_6
REMARK    5  A    between atoms: C3_4  and  C4_5
REMARK    6  A    between atoms: C5_6  and  C6_7
REMARK                            x       y       z     vdW  Elec       q    Type
REMARK                         _______ _______ _______ _____ _____    ______ ____
ROOT
ATOM      1  N1  UNL     1     -11.752 -10.419  -7.397  0.00  0.00    +0.000 NA
ENDROOT
BRANCH   1   3
ATOM      2  C1  UNL     1     -12.243  -8.052  -7.896  0.00  0.00    +0.000 C 
ATOM      3  C2  UNL     1     -11.154  -9.114  -7.762  0.00  0.00    +0.000 C 
ENDBRANCH   1   3
BRANCH   1   4
ATOM      4  C3  UNL     1     -11.118 -10.974  -6.179  0.00  0.00    +0.000 C 
ATOM      5  C4  UNL     1     -10.047 -10.020  -5.659  0.00  0.00    +0.000 C 
ENDBRANCH   1   4
BRANCH   1   6
ATOM      6  C5  UNL     1     -11.671 -11.377  -8.524  0.00  0.00    +0.000 C 
ATOM      7  C6  UNL     1     -10.581 -10.951  -9.504  0.00  0.00    +0.000 C 
ENDBRANCH   1   6
TORSDOF 3
ENDMDL
