MODEL 1
REMARK VINA RESULT:    -2.917      0.000      0.000
REMARK INTER + INTRA:          -3.585
REMARK INTER:                  -3.428
REMARK INTRA:                  -0.156
REMARK UNBOUND:                -0.156
REMARK  Name = C:\Users\Bellamkonda Sowmya\OneDrive\Documents\backend[1]\backend\results\ligand_1764363339446.pdb
REMARK  6 active torsions:
REMARK  status: ('A' for Active; 'I' for Inactive)
REMARK    1  A    between atoms: C_1  and  C_2
REMARK    2  A    between atoms: C_2  and  N_3
REMARK    3  A    between atoms: N_3  and  C_4
REMARK    4  A    between atoms: N_3  and  C_6
REMARK    5  A    between atoms: C_4  and  C_5
REMARK    6  A    between atoms: C_6  and  C_7
REMARK                            x       y       z     vdW  Elec       q    Type
REMARK                         _______ _______ _______ _____ _____    ______ ____
ROOT
ATOM      1  N   UNL     1      -4.543  -3.242   2.293  0.00  0.00    +0.000 NA
ENDROOT
BRANCH   1   3
ATOM      2  C   UNL     1      -5.997  -1.285   2.853  0.00  0.00    +0.000 C 
ATOM      3  C   UNL     1      -4.614  -1.780   2.443  0.00  0.00    +0.000 C 
ENDBRANCH   1   3
BRANCH   1   4
ATOM      4  C   UNL     1      -4.283  -3.693   0.915  0.00  0.00    +0.000 C 
ATOM      5  C   UNL     1      -3.511  -5.003   0.755  0.00  0.00    +0.000 C 
ENDBRANCH   1   4
BRANCH   1   6
ATOM      6  C   UNL     1      -3.609  -3.866   3.244  0.00  0.00    +0.000 C 
ATOM      7  C   UNL     1      -2.591  -2.882   3.815  0.00  0.00    +0.000 C 
ENDBRANCH   1   6
TORSDOF 3
ENDMDL
MODEL 2
REMARK VINA RESULT:    -2.907      0.234      3.191
REMARK INTER + INTRA:          -3.573
REMARK INTER:                  -3.424
REMARK INTRA:                  -0.149
REMARK UNBOUND:                -0.156
REMARK  Name = C:\Users\Bellamkonda Sowmya\OneDrive\Documents\backend[1]\backend\results\ligand_1764363339446.pdb
REMARK  6 active torsions:
REMARK  status: ('A' for Active; 'I' for Inactive)
REMARK    1  A    between atoms: C_1  and  C_2
REMARK    2  A    between atoms: C_2  and  N_3
REMARK    3  A    between atoms: N_3  and  C_4
REMARK    4  A    between atoms: N_3  and  C_6
REMARK    5  A    between atoms: C_4  and  C_5
REMARK    6  A    between atoms: C_6  and  C_7
REMARK                            x       y       z     vdW  Elec       q    Type
REMARK                         _______ _______ _______ _____ _____    ______ ____
ROOT
ATOM      1  N   UNL     1      -4.529  -3.187   2.186  0.00  0.00    +0.000 NA
ENDROOT
BRANCH   1   3
ATOM      2  C   UNL     1      -3.740  -4.821   0.465  0.00  0.00    +0.000 C 
ATOM      3  C   UNL     1      -4.304  -3.434   0.753  0.00  0.00    +0.000 C 
ENDBRANCH   1   3
BRANCH   1   4
ATOM      4  C   UNL     1      -3.532  -3.818   3.068  0.00  0.00    +0.000 C 
ATOM      5  C   UNL     1      -2.558  -2.883   3.785  0.00  0.00    +0.000 C 
ENDBRANCH   1   4
BRANCH   1   6
ATOM      6  C   UNL     1      -4.687  -1.757   2.497  0.00  0.00    +0.000 C 
ATOM      7  C   UNL     1      -6.145  -1.343   2.680  0.00  0.00    +0.000 C 
ENDBRANCH   1   6
TORSDOF 3
ENDMDL
MODEL 3
REMARK VINA RESULT:    -2.902      0.256      3.273
REMARK INTER + INTRA:          -3.567
REMARK INTER:                  -3.416
REMARK INTRA:                  -0.151
REMARK UNBOUND:                -0.156
REMARK  Name = C:\Users\Bellamkonda Sowmya\OneDrive\Documents\backend[1]\backend\results\ligand_1764363339446.pdb
REMARK  6 active torsions:
REMARK  status: ('A' for Active; 'I' for Inactive)
REMARK    1  A    between atoms: C_1  and  C_2
REMARK    2  A    between atoms: C_2  and  N_3
REMARK    3  A    between atoms: N_3  and  C_4
REMARK    4  A    between atoms: N_3  and  C_6
REMARK    5  A    between atoms: C_4  and  C_5
REMARK    6  A    between atoms: C_6  and  C_7
REMARK                            x       y       z     vdW  Elec       q    Type
REMARK                         _______ _______ _______ _____ _____    ______ ____
ROOT
ATOM      1  N   UNL     1      -4.501  -3.213   2.127  0.00  0.00    +0.000 NA
ENDROOT
BRANCH   1   3
ATOM      2  C   UNL     1      -2.628  -2.909   3.756  0.00  0.00    +0.000 C 
ATOM      3  C   UNL     1      -3.511  -3.884   2.985  0.00  0.00    +0.000 C 
ENDBRANCH   1   3
BRANCH   1   4
ATOM      4  C   UNL     1      -4.673  -1.778   2.416  0.00  0.00    +0.000 C 
ATOM      5  C   UNL     1      -6.094  -1.303   2.718  0.00  0.00    +0.000 C 
ENDBRANCH   1   4
BRANCH   1   6
ATOM      6  C   UNL     1      -4.259  -3.443   0.693  0.00  0.00    +0.000 C 
ATOM      7  C   UNL     1      -3.728  -4.843   0.394  0.00  0.00    +0.000 C 
ENDBRANCH   1   6
TORSDOF 3
ENDMDL
MODEL 4
REMARK VINA RESULT:    -2.886      0.611      2.514
REMARK INTER + INTRA:          -3.549
REMARK INTER:                  -3.393
REMARK INTRA:                  -0.155
REMARK UNBOUND:                -0.156
REMARK  Name = C:\Users\Bellamkonda Sowmya\OneDrive\Documents\backend[1]\backend\results\ligand_1764363339446.pdb
REMARK  6 active torsions:
REMARK  status: ('A' for Active; 'I' for Inactive)
REMARK    1  A    between atoms: C_1  and  C_2
REMARK    2  A    between atoms: C_2  and  N_3
REMARK    3  A    between atoms: N_3  and  C_4
REMARK    4  A    between atoms: N_3  and  C_6
REMARK    5  A    between atoms: C_4  and  C_5
REMARK    6  A    between atoms: C_6  and  C_7
REMARK                            x       y       z     vdW  Elec       q    Type
REMARK                         _______ _______ _______ _____ _____    ______ ____
ROOT
ATOM      1  N   UNL     1      -4.269  -3.122   1.972  0.00  0.00    +0.000 NA
ENDROOT
BRANCH   1   3
ATOM      2  C   UNL     1      -5.854  -1.382   2.817  0.00  0.00    +0.000 C 
ATOM      3  C   UNL     1      -5.655  -2.824   2.365  0.00  0.00    +0.000 C 
ENDBRANCH   1   3
BRANCH   1   4
ATOM      4  C   UNL     1      -3.471  -3.773   3.026  0.00  0.00    +0.000 C 
ATOM      5  C   UNL     1      -2.548  -2.871   3.846  0.00  0.00    +0.000 C 
ENDBRANCH   1   4
BRANCH   1   6
ATOM      6  C   UNL     1      -4.185  -3.866   0.704  0.00  0.00    +0.000 C 
ATOM      7  C   UNL     1      -3.439  -5.191   0.837  0.00  0.00    +0.000 C 
ENDBRANCH   1   6
TORSDOF 3
ENDMDL
MODEL 5
REMARK VINA RESULT:    -2.870      0.575      2.951
REMARK INTER + INTRA:          -3.530
REMARK INTER:                  -3.377
REMARK INTRA:                  -0.153
REMARK UNBOUND:                -0.156
REMARK  Name = C:\Users\Bellamkonda Sowmya\OneDrive\Documents\backend[1]\backend\results\ligand_1764363339446.pdb
REMARK  6 active torsions:
REMARK  status: ('A' for Active; 'I' for Inactive)
REMARK    1  A    between atoms: C_1  and  C_2
REMARK    2  A    between atoms: C_2  and  N_3
REMARK    3  A    between atoms: N_3  and  C_4
REMARK    4  A    between atoms: N_3  and  C_6
REMARK    5  A    between atoms: C_4  and  C_5
REMARK    6  A    between atoms: C_6  and  C_7
REMARK                            x       y       z     vdW  Elec       q    Type
REMARK                         _______ _______ _______ _____ _____    ______ ____
ROOT
ATOM      1  N   UNL     1      -4.341  -3.008   2.101  0.00  0.00    +0.000 NA
ENDROOT
BRANCH   1   3
ATOM      2  C   UNL     1      -3.561  -5.041   0.871  0.00  0.00    +0.000 C 
ATOM      3  C   UNL     1      -4.203  -3.661   0.790  0.00  0.00    +0.000 C 
ENDBRANCH   1   3
BRANCH   1   4
ATOM      4  C   UNL     1      -5.733  -2.706   2.480  0.00  0.00    +0.000 C 
ATOM      5  C   UNL     1      -6.046  -1.256   2.848  0.00  0.00    +0.000 C 
ENDBRANCH   1   4
BRANCH   1   6
ATOM      6  C   UNL     1      -3.643  -3.736   3.174  0.00  0.00    +0.000 C 
ATOM      7  C   UNL     1      -2.567  -2.898   3.861  0.00  0.00    +0.000 C 
ENDBRANCH   1   6
TORSDOF 3
ENDMDL
MODEL 6
REMARK VINA RESULT:    -2.742      1.556      3.102
REMARK INTER + INTRA:          -3.379
REMARK INTER:                  -3.187
REMARK INTRA:                  -0.192
REMARK UNBOUND:                -0.156
REMARK  Name = C:\Users\Bellamkonda Sowmya\OneDrive\Documents\backend[1]\backend\results\ligand_1764363339446.pdb
REMARK  6 active torsions:
REMARK  status: ('A' for Active; 'I' for Inactive)
REMARK    1  A    between atoms: C_1  and  C_2
REMARK    2  A    between atoms: C_2  and  N_3
REMARK    3  A    between atoms: N_3  and  C_4
REMARK    4  A    between atoms: N_3  and  C_6
REMARK    5  A    between atoms: C_4  and  C_5
REMARK    6  A    between atoms: C_6  and  C_7
REMARK                            x       y       z     vdW  Elec       q    Type
REMARK                         _______ _______ _______ _____ _____    ______ ____
ROOT
ATOM      1  N   UNL     1      -4.209  -4.859   2.869  0.00  0.00    +0.000 NA
ENDROOT
BRANCH   1   3
ATOM      2  C   UNL     1      -2.729  -3.021   3.698  0.00  0.00    +0.000 C 
ATOM      3  C   UNL     1      -3.412  -3.677   2.503  0.00  0.00    +0.000 C 
ENDBRANCH   1   3
BRANCH   1   4
ATOM      4  C   UNL     1      -5.615  -4.560   3.191  0.00  0.00    +0.000 C 
ATOM      5  C   UNL     1      -6.243  -3.360   2.482  0.00  0.00    +0.000 C 
ENDBRANCH   1   4
BRANCH   1   6
ATOM      6  C   UNL     1      -4.108  -5.941   1.877  0.00  0.00    +0.000 C 
ATOM      7  C   UNL     1      -3.255  -5.565   0.667  0.00  0.00    +0.000 C 
ENDBRANCH   1   6
TORSDOF 3
ENDMDL
MODEL 7
REMARK VINA RESULT:    -2.734      1.219      2.622
REMARK INTER + INTRA:          -3.370
REMARK INTER:                  -3.223
REMARK INTRA:                  -0.146
REMARK UNBOUND:                -0.156
REMARK  Name = C:\Users\Bellamkonda Sowmya\OneDrive\Documents\backend[1]\backend\results\ligand_1764363339446.pdb
REMARK  6 active torsions:
REMARK  status: ('A' for Active; 'I' for Inactive)
REMARK    1  A    between atoms: C_1  and  C_2
REMARK    2  A    between atoms: C_2  and  N_3
REMARK    3  A    between atoms: N_3  and  C_4
REMARK    4  A    between atoms: N_3  and  C_6
REMARK    5  A    between atoms: C_4  and  C_5
REMARK    6  A    between atoms: C_6  and  C_7
REMARK                            x       y       z     vdW  Elec       q    Type
REMARK                         _______ _______ _______ _____ _____    ______ ____
ROOT
ATOM      1  N   UNL     1      -3.881  -3.525   1.422  0.00  0.00    +0.000 NA
ENDROOT
BRANCH   1   3
ATOM      2  C   UNL     1      -2.810  -3.014   3.623  0.00  0.00    +0.000 C 
ATOM      3  C   UNL     1      -3.557  -4.030   2.766  0.00  0.00    +0.000 C 
ENDBRANCH   1   3
BRANCH   1   4
ATOM      4  C   UNL     1      -3.924  -4.568   0.382  0.00  0.00    +0.000 C 
ATOM      5  C   UNL     1      -3.083  -5.820   0.628  0.00  0.00    +0.000 C 
ENDBRANCH   1   4
BRANCH   1   6
ATOM      6  C   UNL     1      -5.102  -2.703   1.403  0.00  0.00    +0.000 C 
ATOM      7  C   UNL     1      -4.930  -1.396   0.632  0.00  0.00    +0.000 C 
ENDBRANCH   1   6
TORSDOF 3
ENDMDL
MODEL 8
REMARK VINA RESULT:    -2.582     13.277     14.259
REMARK INTER + INTRA:          -3.191
REMARK INTER:                  -3.056
REMARK INTRA:                  -0.136
REMARK UNBOUND:                -0.156
REMARK  Name = C:\Users\Bellamkonda Sowmya\OneDrive\Documents\backend[1]\backend\results\ligand_1764363339446.pdb
REMARK  6 active torsions:
REMARK  status: ('A' for Active; 'I' for Inactive)
REMARK    1  A    between atoms: C_1  and  C_2
REMARK    2  A    between atoms: C_2  and  N_3
REMARK    3  A    between atoms: N_3  and  C_4
REMARK    4  A    between atoms: N_3  and  C_6
REMARK    5  A    between atoms: C_4  and  C_5
REMARK    6  A    between atoms: C_6  and  C_7
REMARK                            x       y       z     vdW  Elec       q    Type
REMARK                         _______ _______ _______ _____ _____    ______ ____
ROOT
ATOM      1  N   UNL     1       8.879  -5.250  -1.988  0.00  0.00    +0.000 NA
ENDROOT
BRANCH   1   3
ATOM      2  C   UNL     1      10.544  -3.438  -2.438  0.00  0.00    +0.000 C 
ATOM      3  C   UNL     1       9.497  -4.011  -1.488  0.00  0.00    +0.000 C 
ENDBRANCH   1   3
BRANCH   1   4
ATOM      4  C   UNL     1       9.410  -5.707  -3.284  0.00  0.00    +0.000 C 
ATOM      5  C   UNL     1       8.514  -6.633  -4.106  0.00  0.00    +0.000 C 
ENDBRANCH   1   4
BRANCH   1   6
ATOM      6  C   UNL     1       8.897  -6.335  -0.992  0.00  0.00    +0.000 C 
ATOM      7  C   UNL     1       7.937  -6.095   0.170  0.00  0.00    +0.000 C 
ENDBRANCH   1   6
TORSDOF 3
ENDMDL
MODEL 9
REMARK VINA RESULT:    -2.520      1.761      3.865
REMARK INTER + INTRA:          -3.118
REMARK INTER:                  -2.922
REMARK INTRA:                  -0.196
REMARK UNBOUND:                -0.156
REMARK  Name = C:\Users\Bellamkonda Sowmya\OneDrive\Documents\backend[1]\backend\results\ligand_1764363339446.pdb
REMARK  6 active torsions:
REMARK  status: ('A' for Active; 'I' for Inactive)
REMARK    1  A    between atoms: C_1  and  C_2
REMARK    2  A    between atoms: C_2  and  N_3
REMARK    3  A    between atoms: N_3  and  C_4
REMARK    4  A    between atoms: N_3  and  C_6
REMARK    5  A    between atoms: C_4  and  C_5
REMARK    6  A    between atoms: C_6  and  C_7
REMARK                            x       y       z     vdW  Elec       q    Type
REMARK                         _______ _______ _______ _____ _____    ______ ____
ROOT
ATOM      1  N   UNL     1      -4.706  -4.720   2.006  0.00  0.00    +0.000 NA
ENDROOT
BRANCH   1   3
ATOM      2  C   UNL     1      -3.524  -6.884   1.586  0.00  0.00    +0.000 C 
ATOM      3  C   UNL     1      -4.823  -6.187   1.975  0.00  0.00    +0.000 C 
ENDBRANCH   1   3
BRANCH   1   4
ATOM      4  C   UNL     1      -4.337  -4.174   3.324  0.00  0.00    +0.000 C 
ATOM      5  C   UNL     1      -3.074  -3.317   3.384  0.00  0.00    +0.000 C 
ENDBRANCH   1   4
BRANCH   1   6
ATOM      6  C   UNL     1      -3.825  -4.198   0.948  0.00  0.00    +0.000 C 
ATOM      7  C   UNL     1      -4.575  -3.853  -0.336  0.00  0.00    +0.000 C 
ENDBRANCH   1   6
TORSDOF 3
ENDMDL
