MODEL 1
REMARK VINA RESULT:    -5.040      0.000      0.000
REMARK INTER + INTRA:          -5.787
REMARK INTER:                  -5.629
REMARK INTRA:                  -0.158
REMARK UNBOUND:                -0.158
REMARK  Name = C:\DDRIVE\PROJECT\authml\backend\results\ligand_1764475418314.pdb
REMARK  2 active torsions:
REMARK  status: ('A' for Active; 'I' for Inactive)
REMARK    1  A    between atoms: N_7  and  C_8
REMARK    2  A    between atoms: C_11  and  N_12
REMARK                            x       y       z     vdW  Elec       q    Type
REMARK                         _______ _______ _______ _____ _____    ______ ____
ROOT
ATOM      1  N   UNL     1       9.161  -0.677  -1.929  0.00  0.00    +0.000 NA
ATOM      2  C   UNL     1      10.134  -1.365  -1.373  0.00  0.00    +0.000 C 
ATOM      3  N   UNL     1      11.398  -0.701  -1.026  0.00  0.00    +0.000 N 
ATOM      4  N   UNL     1       9.958  -2.799  -1.100  0.00  0.00    +0.000 N 
ATOM      5  C   UNL     1      11.047  -3.568  -0.480  0.00  0.00    +0.000 C 
ATOM      6  O   UNL     1      12.140  -2.994  -0.180  0.00  0.00    +0.000 OA
ATOM      7  N   UNL     1      10.871  -5.002  -0.208  0.00  0.00    +0.000 N 
ATOM      8  H   UNL     1       9.283   0.318  -2.118  0.00  0.00    +0.000 HD
ATOM      9  H   UNL     1      12.153  -1.234  -0.595  0.00  0.00    +0.000 HD
ATOM     10  H   UNL     1      11.520   0.294  -1.215  0.00  0.00    +0.000 HD
ATOM     11  H   UNL     1       9.080  -3.260  -1.340  0.00  0.00    +0.000 HD
ATOM     12  H   UNL     1      11.627  -5.536   0.221  0.00  0.00    +0.000 HD
ENDROOT
BRANCH   7  13
ATOM     13  C   UNL     1       9.606  -5.666  -0.554  0.00  0.00    +0.000 A 
ATOM     14  C   UNL     1      10.514  -5.295   0.654  0.00  0.00    +0.000 A 
ATOM     15  C   UNL     1       8.228  -5.539  -0.228  0.00  0.00    +0.000 A 
ATOM     16  C   UNL     1       8.913  -5.984  -1.741  0.00  0.00    +0.000 A 
ATOM     17  C   UNL     1       9.210  -6.946  -0.348  0.00  0.00    +0.000 A 
ATOM     18 CL   UNL     1       9.061  -5.969  -0.702  0.00  0.00    +0.000 Cl
ATOM     19  C   UNL     1       9.606  -5.666  -0.554  0.00  0.00    +0.000 A 
BRANCH  16  20
ATOM     20  N   UNL     1       9.106  -5.728  -3.176  0.00  0.00    +0.000 N 
ATOM     21  O   UNL     1       8.499  -6.398  -4.006  0.00  0.00    +0.000 OA
ATOM     22  O   UNL     1       9.964  -4.742  -3.587  0.00  0.00    +0.000 OA
ENDBRANCH  16  20
ENDBRANCH   7  13
TORSDOF 2
ENDMDL
MODEL 2
REMARK VINA RESULT:    -4.866      2.470      3.313
REMARK INTER + INTRA:          -5.593
REMARK INTER:                  -5.211
REMARK INTRA:                  -0.382
REMARK UNBOUND:                -0.158
REMARK  Name = C:\DDRIVE\PROJECT\authml\backend\results\ligand_1764475418314.pdb
REMARK  2 active torsions:
REMARK  status: ('A' for Active; 'I' for Inactive)
REMARK    1  A    between atoms: N_7  and  C_8
REMARK    2  A    between atoms: C_11  and  N_12
REMARK                            x       y       z     vdW  Elec       q    Type
REMARK                         _______ _______ _______ _____ _____    ______ ____
ROOT
ATOM      1  N   UNL     1      10.034  -1.028   2.356  0.00  0.00    +0.000 NA
ATOM      2  C   UNL     1       9.741  -0.809   1.092  0.00  0.00    +0.000 C 
ATOM      3  N   UNL     1       9.146   0.472   0.688  0.00  0.00    +0.000 N 
ATOM      4  N   UNL     1      10.008  -1.846   0.085  0.00  0.00    +0.000 N 
ATOM      5  C   UNL     1       9.678  -1.602  -1.326  0.00  0.00    +0.000 C 
ATOM      6  O   UNL     1       9.163  -0.494  -1.676  0.00  0.00    +0.000 OA
ATOM      7  N   UNL     1       9.944  -2.639  -2.333  0.00  0.00    +0.000 N 
ATOM      8  H   UNL     1       9.849  -0.309   3.054  0.00  0.00    +0.000 HD
ATOM      9  H   UNL     1       8.918   0.642  -0.292  0.00  0.00    +0.000 HD
ATOM     10  H   UNL     1       8.960   1.191   1.386  0.00  0.00    +0.000 HD
ATOM     11  H   UNL     1      10.422  -2.735   0.366  0.00  0.00    +0.000 HD
ATOM     12  H   UNL     1       9.714  -2.470  -3.313  0.00  0.00    +0.000 HD
ENDROOT
BRANCH   7  13
ATOM     13  C   UNL     1      10.540  -3.920  -1.929  0.00  0.00    +0.000 A 
ATOM     14  C   UNL     1      10.739  -2.719  -2.898  0.00  0.00    +0.000 A 
ATOM     15  C   UNL     1      11.783  -4.388  -1.419  0.00  0.00    +0.000 A 
ATOM     16  C   UNL     1      10.208  -4.965  -1.041  0.00  0.00    +0.000 A 
ATOM     17  C   UNL     1      10.784  -5.037  -2.659  0.00  0.00    +0.000 A 
ATOM     18 CL   UNL     1      10.796  -4.485  -1.765  0.00  0.00    +0.000 Cl
ATOM     19  C   UNL     1      10.540  -3.920  -1.929  0.00  0.00    +0.000 A 
BRANCH  16  20
ATOM     20  N   UNL     1       9.145  -5.213  -0.056  0.00  0.00    +0.000 N 
ATOM     21  O   UNL     1       8.187  -5.921  -0.353  0.00  0.00    +0.000 OA
ATOM     22  O   UNL     1       9.222  -4.654   1.192  0.00  0.00    +0.000 OA
ENDBRANCH  16  20
ENDBRANCH   7  13
TORSDOF 2
ENDMDL
MODEL 3
REMARK VINA RESULT:    -4.471     14.189     15.524
REMARK INTER + INTRA:          -5.152
REMARK INTER:                  -5.138
REMARK INTRA:                  -0.014
REMARK UNBOUND:                -0.158
REMARK  Name = C:\DDRIVE\PROJECT\authml\backend\results\ligand_1764475418314.pdb
REMARK  2 active torsions:
REMARK  status: ('A' for Active; 'I' for Inactive)
REMARK    1  A    between atoms: N_7  and  C_8
REMARK    2  A    between atoms: C_11  and  N_12
REMARK                            x       y       z     vdW  Elec       q    Type
REMARK                         _______ _______ _______ _____ _____    ______ ____
ROOT
ATOM      1  N   UNL     1      -2.427  -6.456   0.770  0.00  0.00    +0.000 NA
ATOM      2  C   UNL     1      -3.071  -5.628  -0.023  0.00  0.00    +0.000 C 
ATOM      3  N   UNL     1      -3.028  -5.823  -1.479  0.00  0.00    +0.000 N 
ATOM      4  N   UNL     1      -3.832  -4.507   0.547  0.00  0.00    +0.000 N 
ATOM      5  C   UNL     1      -4.549  -3.580  -0.340  0.00  0.00    +0.000 C 
ATOM      6  O   UNL     1      -4.513  -3.749  -1.600  0.00  0.00    +0.000 OA
ATOM      7  N   UNL     1      -5.309  -2.458   0.229  0.00  0.00    +0.000 N 
ATOM      8  H   UNL     1      -1.898  -7.234   0.375  0.00  0.00    +0.000 HD
ATOM      9  H   UNL     1      -3.528  -5.181  -2.094  0.00  0.00    +0.000 HD
ATOM     10  H   UNL     1      -2.500  -6.601  -1.874  0.00  0.00    +0.000 HD
ATOM     11  H   UNL     1      -3.862  -4.372   1.557  0.00  0.00    +0.000 HD
ATOM     12  H   UNL     1      -5.807  -1.814  -0.387  0.00  0.00    +0.000 HD
ENDROOT
BRANCH   7  13
ATOM     13  C   UNL     1      -5.353  -2.264   1.685  0.00  0.00    +0.000 A 
ATOM     14  C   UNL     1      -5.057  -1.521   0.351  0.00  0.00    +0.000 A 
ATOM     15  C   UNL     1      -6.020  -1.418   2.614  0.00  0.00    +0.000 A 
ATOM     16  C   UNL     1      -5.596  -3.073   2.815  0.00  0.00    +0.000 A 
ATOM     17  C   UNL     1      -4.371  -1.898   2.545  0.00  0.00    +0.000 A 
ATOM     18 CL   UNL     1      -5.357  -2.178   2.321  0.00  0.00    +0.000 Cl
ATOM     19  C   UNL     1      -5.353  -2.264   1.685  0.00  0.00    +0.000 A 
BRANCH  16  20
ATOM     20  N   UNL     1      -5.992  -4.470   3.046  0.00  0.00    +0.000 N 
ATOM     21  O   UNL     1      -5.136  -5.346   3.117  0.00  0.00    +0.000 OA
ATOM     22  O   UNL     1      -7.316  -4.794   3.181  0.00  0.00    +0.000 OA
ENDBRANCH  16  20
ENDBRANCH   7  13
TORSDOF 2
ENDMDL
MODEL 4
REMARK VINA RESULT:    -4.371      2.474      4.462
REMARK INTER + INTRA:          -5.041
REMARK INTER:                  -4.981
REMARK INTRA:                  -0.060
REMARK UNBOUND:                -0.158
REMARK  Name = C:\DDRIVE\PROJECT\authml\backend\results\ligand_1764475418314.pdb
REMARK  2 active torsions:
REMARK  status: ('A' for Active; 'I' for Inactive)
REMARK    1  A    between atoms: N_7  and  C_8
REMARK    2  A    between atoms: C_11  and  N_12
REMARK                            x       y       z     vdW  Elec       q    Type
REMARK                         _______ _______ _______ _____ _____    ______ ____
ROOT
ATOM      1  N   UNL     1       9.848  -4.447   2.834  0.00  0.00    +0.000 NA
ATOM      2  C   UNL     1       9.266  -5.029   1.808  0.00  0.00    +0.000 C 
ATOM      3  N   UNL     1       8.279  -6.096   2.032  0.00  0.00    +0.000 N 
ATOM      4  N   UNL     1       9.601  -4.614   0.439  0.00  0.00    +0.000 N 
ATOM      5  C   UNL     1       8.952  -5.266  -0.707  0.00  0.00    +0.000 C 
ATOM      6  O   UNL     1       8.099  -6.188  -0.514  0.00  0.00    +0.000 OA
ATOM      7  N   UNL     1       9.288  -4.851  -2.076  0.00  0.00    +0.000 N 
ATOM      8  H   UNL     1       9.615  -4.736   3.784  0.00  0.00    +0.000 HD
ATOM      9  H   UNL     1       7.827  -6.547   1.236  0.00  0.00    +0.000 HD
ATOM     10  H   UNL     1       8.046  -6.385   2.982  0.00  0.00    +0.000 HD
ATOM     11  H   UNL     1      10.285  -3.873   0.284  0.00  0.00    +0.000 HD
ATOM     12  H   UNL     1       8.838  -5.304  -2.872  0.00  0.00    +0.000 HD
ENDROOT
BRANCH   7  13
ATOM     13  C   UNL     1      10.274  -3.783  -2.300  0.00  0.00    +0.000 A 
ATOM     14  C   UNL     1       9.943  -5.255  -2.681  0.00  0.00    +0.000 A 
ATOM     15  C   UNL     1      10.822  -3.071  -3.403  0.00  0.00    +0.000 A 
ATOM     16  C   UNL     1      10.477  -2.470  -1.828  0.00  0.00    +0.000 A 
ATOM     17  C   UNL     1      11.602  -3.754  -2.030  0.00  0.00    +0.000 A 
ATOM     18 CL   UNL     1      10.713  -3.325  -2.389  0.00  0.00    +0.000 Cl
ATOM     19  C   UNL     1      10.274  -3.783  -2.300  0.00  0.00    +0.000 A 
BRANCH  16  20
ATOM     20  N   UNL     1       9.751  -1.539  -0.952  0.00  0.00    +0.000 N 
ATOM     21  O   UNL     1       9.049  -0.659  -1.439  0.00  0.00    +0.000 OA
ATOM     22  O   UNL     1       9.860  -1.654   0.409  0.00  0.00    +0.000 OA
ENDBRANCH  16  20
ENDBRANCH   7  13
TORSDOF 2
ENDMDL
MODEL 5
REMARK VINA RESULT:    -4.358      2.125      3.825
REMARK INTER + INTRA:          -5.025
REMARK INTER:                  -4.725
REMARK INTRA:                  -0.301
REMARK UNBOUND:                -0.158
REMARK  Name = C:\DDRIVE\PROJECT\authml\backend\results\ligand_1764475418314.pdb
REMARK  2 active torsions:
REMARK  status: ('A' for Active; 'I' for Inactive)
REMARK    1  A    between atoms: N_7  and  C_8
REMARK    2  A    between atoms: C_11  and  N_12
REMARK                            x       y       z     vdW  Elec       q    Type
REMARK                         _______ _______ _______ _____ _____    ______ ____
ROOT
ATOM      1  N   UNL     1      10.589  -7.523   1.390  0.00  0.00    +0.000 NA
ATOM      2  C   UNL     1      10.276  -6.245   1.376  0.00  0.00    +0.000 C 
ATOM      3  N   UNL     1       9.813  -5.589   2.607  0.00  0.00    +0.000 N 
ATOM      4  N   UNL     1      10.387  -5.474   0.129  0.00  0.00    +0.000 N 
ATOM      5  C   UNL     1      10.035  -4.047   0.113  0.00  0.00    +0.000 C 
ATOM      6  O   UNL     1       9.635  -3.479   1.178  0.00  0.00    +0.000 OA
ATOM      7  N   UNL     1      10.145  -3.277  -1.134  0.00  0.00    +0.000 N 
ATOM      8  H   UNL     1      10.511  -8.057   2.255  0.00  0.00    +0.000 HD
ATOM      9  H   UNL     1       9.570  -4.598   2.596  0.00  0.00    +0.000 HD
ATOM     10  H   UNL     1       9.735  -6.123   3.472  0.00  0.00    +0.000 HD
ATOM     11  H   UNL     1      10.709  -5.930  -0.725  0.00  0.00    +0.000 HD
ATOM     12  H   UNL     1       9.900  -2.287  -1.145  0.00  0.00    +0.000 HD
ENDROOT
BRANCH   7  13
ATOM     13  C   UNL     1      10.609  -3.933  -2.364  0.00  0.00    +0.000 A 
ATOM     14  C   UNL     1      10.935  -2.762  -1.394  0.00  0.00    +0.000 A 
ATOM     15  C   UNL     1      11.794  -4.559  -2.841  0.00  0.00    +0.000 A 
ATOM     16  C   UNL     1      10.166  -4.992  -3.184  0.00  0.00    +0.000 A 
ATOM     17  C   UNL     1      10.750  -3.435  -3.617  0.00  0.00    +0.000 A 
ATOM     18 CL   UNL     1      10.807  -4.208  -2.909  0.00  0.00    +0.000 Cl
ATOM     19  C   UNL     1      10.609  -3.933  -2.364  0.00  0.00    +0.000 A 
BRANCH  16  20
ATOM     20  N   UNL     1       9.072  -5.974  -3.139  0.00  0.00    +0.000 N 
ATOM     21  O   UNL     1       8.422  -6.214  -4.151  0.00  0.00    +0.000 OA
ATOM     22  O   UNL     1       8.780  -6.621  -1.968  0.00  0.00    +0.000 OA
ENDBRANCH  16  20
ENDBRANCH   7  13
TORSDOF 2
ENDMDL
MODEL 6
REMARK VINA RESULT:    -4.303     14.427     15.451
REMARK INTER + INTRA:          -4.964
REMARK INTER:                  -4.565
REMARK INTRA:                  -0.400
REMARK UNBOUND:                -0.158
REMARK  Name = C:\DDRIVE\PROJECT\authml\backend\results\ligand_1764475418314.pdb
REMARK  2 active torsions:
REMARK  status: ('A' for Active; 'I' for Inactive)
REMARK    1  A    between atoms: N_7  and  C_8
REMARK    2  A    between atoms: C_11  and  N_12
REMARK                            x       y       z     vdW  Elec       q    Type
REMARK                         _______ _______ _______ _____ _____    ______ ____
ROOT
ATOM      1  N   UNL     1      -8.836  -2.564   1.779  0.00  0.00    +0.000 NA
ATOM      2  C   UNL     1      -7.649  -2.164   2.181  0.00  0.00    +0.000 C 
ATOM      3  N   UNL     1      -7.522  -0.948   2.998  0.00  0.00    +0.000 N 
ATOM      4  N   UNL     1      -6.451  -2.931   1.814  0.00  0.00    +0.000 N 
ATOM      5  C   UNL     1      -5.125  -2.482   2.262  0.00  0.00    +0.000 C 
ATOM      6  O   UNL     1      -5.014  -1.431   2.968  0.00  0.00    +0.000 OA
ATOM      7  N   UNL     1      -3.926  -3.249   1.894  0.00  0.00    +0.000 N 
ATOM      8  H   UNL     1      -9.668  -2.031   2.034  0.00  0.00    +0.000 HD
ATOM      9  H   UNL     1      -6.602  -0.637   3.310  0.00  0.00    +0.000 HD
ATOM     10  H   UNL     1      -8.353  -0.415   3.252  0.00  0.00    +0.000 HD
ATOM     11  H   UNL     1      -6.539  -3.776   1.249  0.00  0.00    +0.000 HD
ATOM     12  H   UNL     1      -3.006  -2.938   2.204  0.00  0.00    +0.000 HD
ENDROOT
BRANCH   7  13
ATOM     13  C   UNL     1      -4.054  -4.466   1.079  0.00  0.00    +0.000 A 
ATOM     14  C   UNL     1      -3.530  -3.950   2.450  0.00  0.00    +0.000 A 
ATOM     15  C   UNL     1      -4.642  -5.756   1.199  0.00  0.00    +0.000 A 
ATOM     16  C   UNL     1      -4.521  -4.782  -0.214  0.00  0.00    +0.000 A 
ATOM     17  C   UNL     1      -3.097  -5.297   0.599  0.00  0.00    +0.000 A 
ATOM     18 CL   UNL     1      -4.095  -4.997   0.721  0.00  0.00    +0.000 Cl
ATOM     19  C   UNL     1      -4.054  -4.466   1.079  0.00  0.00    +0.000 A 
BRANCH  16  20
ATOM     20  N   UNL     1      -5.164  -4.047  -1.313  0.00  0.00    +0.000 N 
ATOM     21  O   UNL     1      -4.552  -3.844  -2.356  0.00  0.00    +0.000 OA
ATOM     22  O   UNL     1      -6.447  -3.587  -1.171  0.00  0.00    +0.000 OA
ENDBRANCH  16  20
ENDBRANCH   7  13
TORSDOF 2
ENDMDL
MODEL 7
REMARK VINA RESULT:    -4.251      2.417      2.860
REMARK INTER + INTRA:          -4.906
REMARK INTER:                  -4.589
REMARK INTRA:                  -0.318
REMARK UNBOUND:                -0.158
REMARK  Name = C:\DDRIVE\PROJECT\authml\backend\results\ligand_1764475418314.pdb
REMARK  2 active torsions:
REMARK  status: ('A' for Active; 'I' for Inactive)
REMARK    1  A    between atoms: N_7  and  C_8
REMARK    2  A    between atoms: C_11  and  N_12
REMARK                            x       y       z     vdW  Elec       q    Type
REMARK                         _______ _______ _______ _____ _____    ______ ____
ROOT
ATOM      1  N   UNL     1       9.615  -1.505   0.512  0.00  0.00    +0.000 NA
ATOM      2  C   UNL     1       9.864  -1.664  -0.770  0.00  0.00    +0.000 C 
ATOM      3  N   UNL     1       9.585  -0.573  -1.713  0.00  0.00    +0.000 N 
ATOM      4  N   UNL     1      10.421  -2.934  -1.259  0.00  0.00    +0.000 N 
ATOM      5  C   UNL     1      10.697  -3.112  -2.692  0.00  0.00    +0.000 C 
ATOM      6  O   UNL     1      10.456  -2.168  -3.508  0.00  0.00    +0.000 OA
ATOM      7  N   UNL     1      11.253  -4.382  -3.181  0.00  0.00    +0.000 N 
ATOM      8  H   UNL     1       9.229  -0.625   0.851  0.00  0.00    +0.000 HD
ATOM      9  H   UNL     1       9.778  -0.695  -2.707  0.00  0.00    +0.000 HD
ATOM     10  H   UNL     1       9.198   0.308  -1.374  0.00  0.00    +0.000 HD
ATOM     11  H   UNL     1      10.616  -3.691  -0.604  0.00  0.00    +0.000 HD
ATOM     12  H   UNL     1      11.444  -4.505  -4.175  0.00  0.00    +0.000 HD
ENDROOT
BRANCH   7  13
ATOM     13  C   UNL     1      11.534  -5.473  -2.237  0.00  0.00    +0.000 A 
ATOM     14  C   UNL     1      12.226  -4.475  -3.209  0.00  0.00    +0.000 A 
ATOM     15  C   UNL     1      12.306  -5.673  -1.059  0.00  0.00    +0.000 A 
ATOM     16  C   UNL     1      10.771  -6.351  -1.439  0.00  0.00    +0.000 A 
ATOM     17  C   UNL     1      12.126  -6.674  -2.446  0.00  0.00    +0.000 A 
ATOM     18 CL   UNL     1      11.659  -5.958  -1.837  0.00  0.00    +0.000 Cl
ATOM     19  C   UNL     1      11.534  -5.473  -2.237  0.00  0.00    +0.000 A 
BRANCH  16  20
ATOM     20  N   UNL     1       9.345  -6.526  -1.129  0.00  0.00    +0.000 N 
ATOM     21  O   UNL     1       8.810  -7.618  -1.297  0.00  0.00    +0.000 OA
ATOM     22  O   UNL     1       8.612  -5.471  -0.655  0.00  0.00    +0.000 OA
ENDBRANCH  16  20
ENDBRANCH   7  13
TORSDOF 2
ENDMDL
MODEL 8
REMARK VINA RESULT:    -4.157     14.846     16.052
REMARK INTER + INTRA:          -4.801
REMARK INTER:                  -4.403
REMARK INTRA:                  -0.398
REMARK UNBOUND:                -0.158
REMARK  Name = C:\DDRIVE\PROJECT\authml\backend\results\ligand_1764475418314.pdb
REMARK  2 active torsions:
REMARK  status: ('A' for Active; 'I' for Inactive)
REMARK    1  A    between atoms: N_7  and  C_8
REMARK    2  A    between atoms: C_11  and  N_12
REMARK                            x       y       z     vdW  Elec       q    Type
REMARK                         _______ _______ _______ _____ _____    ______ ____
ROOT
ATOM      1  N   UNL     1      -8.352  -2.229   1.880  0.00  0.00    +0.000 NA
ATOM      2  C   UNL     1      -8.196  -3.524   2.044  0.00  0.00    +0.000 C 
ATOM      3  N   UNL     1      -9.328  -4.350   2.488  0.00  0.00    +0.000 N 
ATOM      4  N   UNL     1      -6.890  -4.146   1.785  0.00  0.00    +0.000 N 
ATOM      5  C   UNL     1      -6.715  -5.594   1.970  0.00  0.00    +0.000 C 
ATOM      6  O   UNL     1      -7.694  -6.309   2.354  0.00  0.00    +0.000 OA
ATOM      7  N   UNL     1      -5.409  -6.216   1.712  0.00  0.00    +0.000 N 
ATOM      8  H   UNL     1      -9.259  -1.797   2.061  0.00  0.00    +0.000 HD
ATOM      9  H   UNL     1      -9.208  -5.355   2.615  0.00  0.00    +0.000 HD
ATOM     10  H   UNL     1     -10.235  -3.919   2.668  0.00  0.00    +0.000 HD
ATOM     11  H   UNL     1      -6.104  -3.573   1.476  0.00  0.00    +0.000 HD
ATOM     12  H   UNL     1      -5.287  -7.220   1.842  0.00  0.00    +0.000 HD
ENDROOT
BRANCH   7  13
ATOM     13  C   UNL     1      -4.277  -5.390   1.267  0.00  0.00    +0.000 A 
ATOM     14  C   UNL     1      -5.117  -6.641   0.881  0.00  0.00    +0.000 A 
ATOM     15  C   UNL     1      -3.915  -4.632   0.120  0.00  0.00    +0.000 A 
ATOM     16  C   UNL     1      -3.570  -4.277   1.767  0.00  0.00    +0.000 A 
ATOM     17  C   UNL     1      -2.981  -5.728   1.059  0.00  0.00    +0.000 A 
ATOM     18 CL   UNL     1      -3.774  -5.041   1.077  0.00  0.00    +0.000 Cl
ATOM     19  C   UNL     1      -4.277  -5.390   1.267  0.00  0.00    +0.000 A 
BRANCH  16  20
ATOM     20  N   UNL     1      -3.691  -3.385   2.929  0.00  0.00    +0.000 N 
ATOM     21  O   UNL     1      -2.887  -3.468   3.852  0.00  0.00    +0.000 OA
ATOM     22  O   UNL     1      -4.701  -2.462   2.983  0.00  0.00    +0.000 OA
ENDBRANCH  16  20
ENDBRANCH   7  13
TORSDOF 2
ENDMDL
MODEL 9
REMARK VINA RESULT:    -3.949     14.450     15.591
REMARK INTER + INTRA:          -4.569
REMARK INTER:                  -4.175
REMARK INTRA:                  -0.394
REMARK UNBOUND:                -0.158
REMARK  Name = C:\DDRIVE\PROJECT\authml\backend\results\ligand_1764475418314.pdb
REMARK  2 active torsions:
REMARK  status: ('A' for Active; 'I' for Inactive)
REMARK    1  A    between atoms: N_7  and  C_8
REMARK    2  A    between atoms: C_11  and  N_12
REMARK                            x       y       z     vdW  Elec       q    Type
REMARK                         _______ _______ _______ _____ _____    ______ ____
ROOT
ATOM      1  N   UNL     1      -8.498  -3.544  -0.781  0.00  0.00    +0.000 NA
ATOM      2  C   UNL     1      -7.704  -2.556  -0.431  0.00  0.00    +0.000 C 
ATOM      3  N   UNL     1      -7.934  -1.205  -0.964  0.00  0.00    +0.000 N 
ATOM      4  N   UNL     1      -6.586  -2.802   0.491  0.00  0.00    +0.000 N 
ATOM      5  C   UNL     1      -5.698  -1.697   0.880  0.00  0.00    +0.000 C 
ATOM      6  O   UNL     1      -5.897  -0.529   0.419  0.00  0.00    +0.000 OA
ATOM      7  N   UNL     1      -4.579  -1.943   1.800  0.00  0.00    +0.000 N 
ATOM      8  H   UNL     1      -9.274  -3.374  -1.421  0.00  0.00    +0.000 HD
ATOM      9  H   UNL     1      -7.319  -0.438  -0.693  0.00  0.00    +0.000 HD
ATOM     10  H   UNL     1      -8.710  -1.035  -1.603  0.00  0.00    +0.000 HD
ATOM     11  H   UNL     1      -6.427  -3.739   0.861  0.00  0.00    +0.000 HD
ATOM     12  H   UNL     1      -3.962  -1.177   2.070  0.00  0.00    +0.000 HD
ENDROOT
BRANCH   7  13
ATOM     13  C   UNL     1      -4.349  -3.294   2.334  0.00  0.00    +0.000 A 
ATOM     14  C   UNL     1      -4.618  -1.825   2.771  0.00  0.00    +0.000 A 
ATOM     15  C   UNL     1      -5.021  -4.219   3.180  0.00  0.00    +0.000 A 
ATOM     16  C   UNL     1      -4.058  -4.565   1.798  0.00  0.00    +0.000 A 
ATOM     17  C   UNL     1      -3.366  -3.754   3.146  0.00  0.00    +0.000 A 
ATOM     18 CL   UNL     1      -4.236  -3.878   2.571  0.00  0.00    +0.000 Cl
ATOM     19  C   UNL     1      -4.349  -3.294   2.334  0.00  0.00    +0.000 A 
BRANCH  16  20
ATOM     20  N   UNL     1      -3.923  -5.136   0.449  0.00  0.00    +0.000 N 
ATOM     21  O   UNL     1      -2.842  -5.580   0.077  0.00  0.00    +0.000 OA
ATOM     22  O   UNL     1      -5.004  -5.170  -0.391  0.00  0.00    +0.000 OA
ENDBRANCH  16  20
ENDBRANCH   7  13
TORSDOF 2
ENDMDL
