MODEL 1
REMARK VINA RESULT:    -4.226      0.000      0.000
REMARK INTER + INTRA:          -5.733
REMARK INTER:                  -5.090
REMARK INTRA:                  -0.643
REMARK UNBOUND:                -0.643
REMARK  Name = results/2970eac8-c246-4faa-a76f-d5a129c132dc_ligand.pdb
REMARK  5 active torsions:
REMARK  status: ('A' for Active; 'I' for Inactive)
REMARK    1  A    between atoms: C1_1  and  C2_2
REMARK    2  A    between atoms: C2_2  and  O2_4
REMARK    3  A    between atoms: O2_4  and  C3_5
REMARK    4  A    between atoms: C8_10  and  C9_11
REMARK    5  A    between atoms: C9_11  and  O4_13
REMARK                            x       y       z     vdW  Elec       q    Type
REMARK                         _______ _______ _______ _____ _____    ______ ____
ROOT
ATOM      1  C3  UNL     1      10.026  -3.966  -1.128  0.00  0.00    +0.000 A 
ATOM      2  C4  UNL     1       9.199  -4.798  -0.348  0.00  0.00    +0.000 A 
ATOM      3  C5  UNL     1       8.647  -5.960  -0.889  0.00  0.00    +0.000 A 
ATOM      4  C6  UNL     1       8.902  -6.302  -2.215  0.00  0.00    +0.000 A 
ATOM      5  C7  UNL     1       9.702  -5.479  -3.009  0.00  0.00    +0.000 A 
ATOM      6  C8  UNL     1      10.269  -4.302  -2.483  0.00  0.00    +0.000 A 
ENDROOT
BRANCH   6   7
ATOM      7  C9  UNL     1      11.114  -3.454  -3.366  0.00  0.00    +0.000 C 
ATOM      8  O3  UNL     1      12.289  -3.799  -3.666  0.00  0.00    +0.000 OA
BRANCH   7   9
ATOM      9  O4  UNL     1      10.613  -2.258  -3.874  0.00  0.00    +0.000 OA
ATOM     10  H8  UNL     1       9.734  -2.234  -4.377  0.00  0.00    +0.000 HD
ENDBRANCH   7   9
ENDBRANCH   6   7
BRANCH   1  11
ATOM     11  O2  UNL     1      10.572  -2.788  -0.591  0.00  0.00    +0.000 OA
BRANCH  11  13
ATOM     12  C1  UNL     1       9.684  -1.020   0.927  0.00  0.00    +0.000 C 
ATOM     13  C2  UNL     1       9.891  -1.574  -0.441  0.00  0.00    +0.000 C 
ATOM     14  O1  UNL     1       9.366  -0.996  -1.431  0.00  0.00    +0.000 OA
ENDBRANCH  11  13
ENDBRANCH   1  11
TORSDOF 4
ENDMDL
MODEL 2
REMARK VINA RESULT:    -4.185     13.825     14.833
REMARK INTER + INTRA:          -5.684
REMARK INTER:                  -5.058
REMARK INTRA:                  -0.626
REMARK UNBOUND:                -0.643
REMARK  Name = results/2970eac8-c246-4faa-a76f-d5a129c132dc_ligand.pdb
REMARK  5 active torsions:
REMARK  status: ('A' for Active; 'I' for Inactive)
REMARK    1  A    between atoms: C1_1  and  C2_2
REMARK    2  A    between atoms: C2_2  and  O2_4
REMARK    3  A    between atoms: O2_4  and  C3_5
REMARK    4  A    between atoms: C8_10  and  C9_11
REMARK    5  A    between atoms: C9_11  and  O4_13
REMARK                            x       y       z     vdW  Elec       q    Type
REMARK                         _______ _______ _______ _____ _____    ______ ____
ROOT
ATOM      1  C3  UNL     1      -4.535  -3.938   0.598  0.00  0.00    +0.000 A 
ATOM      2  C4  UNL     1      -4.908  -2.595   0.805  0.00  0.00    +0.000 A 
ATOM      3  C5  UNL     1      -4.552  -1.933   1.980  0.00  0.00    +0.000 A 
ATOM      4  C6  UNL     1      -3.831  -2.599   2.967  0.00  0.00    +0.000 A 
ATOM      5  C7  UNL     1      -3.469  -3.936   2.788  0.00  0.00    +0.000 A 
ATOM      6  C8  UNL     1      -3.818  -4.624   1.610  0.00  0.00    +0.000 A 
ENDROOT
BRANCH   6   7
ATOM      7  C9  UNL     1      -3.414  -6.048   1.462  0.00  0.00    +0.000 C 
ATOM      8  O3  UNL     1      -4.023  -6.963   2.078  0.00  0.00    +0.000 OA
BRANCH   7   9
ATOM      9  O4  UNL     1      -2.348  -6.388   0.633  0.00  0.00    +0.000 OA
ATOM     10  H8  UNL     1      -1.390  -6.289   0.949  0.00  0.00    +0.000 HD
ENDBRANCH   7   9
ENDBRANCH   6   7
BRANCH   1  11
ATOM     11  O2  UNL     1      -4.903  -4.614  -0.578  0.00  0.00    +0.000 OA
BRANCH  11  13
ATOM     12  C1  UNL     1      -4.661  -3.636  -2.859  0.00  0.00    +0.000 C 
ATOM     13  C2  UNL     1      -4.205  -4.569  -1.790  0.00  0.00    +0.000 C 
ATOM     14  O1  UNL     1      -3.262  -5.373  -2.028  0.00  0.00    +0.000 OA
ENDBRANCH  11  13
ENDBRANCH   1  11
TORSDOF 4
ENDMDL
MODEL 3
REMARK VINA RESULT:    -4.111     13.270     14.247
REMARK INTER + INTRA:          -5.595
REMARK INTER:                  -5.175
REMARK INTRA:                  -0.420
REMARK UNBOUND:                -0.643
REMARK  Name = results/2970eac8-c246-4faa-a76f-d5a129c132dc_ligand.pdb
REMARK  5 active torsions:
REMARK  status: ('A' for Active; 'I' for Inactive)
REMARK    1  A    between atoms: C1_1  and  C2_2
REMARK    2  A    between atoms: C2_2  and  O2_4
REMARK    3  A    between atoms: O2_4  and  C3_5
REMARK    4  A    between atoms: C8_10  and  C9_11
REMARK    5  A    between atoms: C9_11  and  O4_13
REMARK                            x       y       z     vdW  Elec       q    Type
REMARK                         _______ _______ _______ _____ _____    ______ ____
ROOT
ATOM      1  C3  UNL     1      -3.847  -4.152   0.649  0.00  0.00    +0.000 A 
ATOM      2  C4  UNL     1      -4.746  -3.081   0.480  0.00  0.00    +0.000 A 
ATOM      3  C5  UNL     1      -5.469  -2.941  -0.705  0.00  0.00    +0.000 A 
ATOM      4  C6  UNL     1      -5.299  -3.858  -1.739  0.00  0.00    +0.000 A 
ATOM      5  C7  UNL     1      -4.399  -4.915  -1.597  0.00  0.00    +0.000 A 
ATOM      6  C8  UNL     1      -3.658  -5.075  -0.410  0.00  0.00    +0.000 A 
ENDROOT
BRANCH   6   7
ATOM      7  C9  UNL     1      -2.708  -6.214  -0.302  0.00  0.00    +0.000 C 
ATOM      8  O3  UNL     1      -2.152  -6.694  -1.327  0.00  0.00    +0.000 OA
BRANCH   7   9
ATOM      9  O4  UNL     1      -2.421  -6.768   0.942  0.00  0.00    +0.000 OA
ATOM     10  H8  UNL     1      -1.627  -7.385   1.068  0.00  0.00    +0.000 HD
ENDBRANCH   7   9
ENDBRANCH   6   7
BRANCH   1  11
ATOM     11  O2  UNL     1      -3.106  -4.289   1.835  0.00  0.00    +0.000 OA
BRANCH  11  13
ATOM     12  C1  UNL     1      -2.611  -2.871   3.826  0.00  0.00    +0.000 C 
ATOM     13  C2  UNL     1      -3.498  -3.820   3.094  0.00  0.00    +0.000 C 
ATOM     14  O1  UNL     1      -4.535  -4.261   3.659  0.00  0.00    +0.000 OA
ENDBRANCH  11  13
ENDBRANCH   1  11
TORSDOF 4
ENDMDL
MODEL 4
REMARK VINA RESULT:    -4.100     14.142     15.033
REMARK INTER + INTRA:          -5.581
REMARK INTER:                  -4.997
REMARK INTRA:                  -0.584
REMARK UNBOUND:                -0.643
REMARK  Name = results/2970eac8-c246-4faa-a76f-d5a129c132dc_ligand.pdb
REMARK  5 active torsions:
REMARK  status: ('A' for Active; 'I' for Inactive)
REMARK    1  A    between atoms: C1_1  and  C2_2
REMARK    2  A    between atoms: C2_2  and  O2_4
REMARK    3  A    between atoms: O2_4  and  C3_5
REMARK    4  A    between atoms: C8_10  and  C9_11
REMARK    5  A    between atoms: C9_11  and  O4_13
REMARK                            x       y       z     vdW  Elec       q    Type
REMARK                         _______ _______ _______ _____ _____    ______ ____
ROOT
ATOM      1  C3  UNL     1      -3.671  -4.405   1.489  0.00  0.00    +0.000 A 
ATOM      2  C4  UNL     1      -3.330  -3.881   2.752  0.00  0.00    +0.000 A 
ATOM      3  C5  UNL     1      -3.756  -2.608   3.130  0.00  0.00    +0.000 A 
ATOM      4  C6  UNL     1      -4.514  -1.836   2.254  0.00  0.00    +0.000 A 
ATOM      5  C7  UNL     1      -4.844  -2.330   0.991  0.00  0.00    +0.000 A 
ATOM      6  C8  UNL     1      -4.425  -3.613   0.588  0.00  0.00    +0.000 A 
ENDROOT
BRANCH   6   7
ATOM      7  C9  UNL     1      -4.798  -4.099  -0.767  0.00  0.00    +0.000 C 
ATOM      8  O3  UNL     1      -5.914  -3.809  -1.276  0.00  0.00    +0.000 OA
BRANCH   7   9
ATOM      9  O4  UNL     1      -3.909  -4.886  -1.495  0.00  0.00    +0.000 OA
ATOM     10  H8  UNL     1      -3.093  -4.479  -1.936  0.00  0.00    +0.000 HD
ENDBRANCH   7   9
ENDBRANCH   6   7
BRANCH   1  11
ATOM     11  O2  UNL     1      -3.233  -5.682   1.098  0.00  0.00    +0.000 OA
BRANCH  11  13
ATOM     12  C1  UNL     1      -5.219  -6.977   1.872  0.00  0.00    +0.000 C 
ATOM     13  C2  UNL     1      -3.765  -6.895   1.550  0.00  0.00    +0.000 C 
ATOM     14  O1  UNL     1      -3.021  -7.885   1.784  0.00  0.00    +0.000 OA
ENDBRANCH  11  13
ENDBRANCH   1  11
TORSDOF 4
ENDMDL
MODEL 5
REMARK VINA RESULT:    -3.971      2.785      4.040
REMARK INTER + INTRA:          -5.426
REMARK INTER:                  -4.702
REMARK INTRA:                  -0.724
REMARK UNBOUND:                -0.643
REMARK  Name = results/2970eac8-c246-4faa-a76f-d5a129c132dc_ligand.pdb
REMARK  5 active torsions:
REMARK  status: ('A' for Active; 'I' for Inactive)
REMARK    1  A    between atoms: C1_1  and  C2_2
REMARK    2  A    between atoms: C2_2  and  O2_4
REMARK    3  A    between atoms: O2_4  and  C3_5
REMARK    4  A    between atoms: C8_10  and  C9_11
REMARK    5  A    between atoms: C9_11  and  O4_13
REMARK                            x       y       z     vdW  Elec       q    Type
REMARK                         _______ _______ _______ _____ _____    ______ ____
ROOT
ATOM      1  C3  UNL     1       9.068  -4.730  -1.489  0.00  0.00    +0.000 A 
ATOM      2  C4  UNL     1       9.596  -3.527  -0.981  0.00  0.00    +0.000 A 
ATOM      3  C5  UNL     1      10.554  -2.812  -1.700  0.00  0.00    +0.000 A 
ATOM      4  C6  UNL     1      11.006  -3.289  -2.927  0.00  0.00    +0.000 A 
ATOM      5  C7  UNL     1      10.509  -4.490  -3.438  0.00  0.00    +0.000 A 
ATOM      6  C8  UNL     1       9.542  -5.228  -2.728  0.00  0.00    +0.000 A 
ENDROOT
BRANCH   6   7
ATOM      7  C9  UNL     1       9.042  -6.503  -3.309  0.00  0.00    +0.000 C 
ATOM      8  O3  UNL     1       8.430  -6.518  -4.411  0.00  0.00    +0.000 OA
BRANCH   7   9
ATOM      9  O4  UNL     1       9.245  -7.704  -2.634  0.00  0.00    +0.000 OA
ATOM     10  H8  UNL     1       9.443  -7.717  -1.641  0.00  0.00    +0.000 HD
ENDBRANCH   7   9
ENDBRANCH   6   7
BRANCH   1  11
ATOM     11  O2  UNL     1       8.113  -5.461  -0.762  0.00  0.00    +0.000 OA
BRANCH  11  13
ATOM     12  C1  UNL     1       7.779  -5.873   1.675  0.00  0.00    +0.000 C 
ATOM     13  C2  UNL     1       8.382  -6.248   0.364  0.00  0.00    +0.000 C 
ATOM     14  O1  UNL     1       9.200  -7.206   0.308  0.00  0.00    +0.000 OA
ENDBRANCH  11  13
ENDBRANCH   1  11
TORSDOF 4
ENDMDL
MODEL 6
REMARK VINA RESULT:    -3.833     13.999     14.873
REMARK INTER + INTRA:          -5.260
REMARK INTER:                  -4.662
REMARK INTRA:                  -0.598
REMARK UNBOUND:                -0.643
REMARK  Name = results/2970eac8-c246-4faa-a76f-d5a129c132dc_ligand.pdb
REMARK  5 active torsions:
REMARK  status: ('A' for Active; 'I' for Inactive)
REMARK    1  A    between atoms: C1_1  and  C2_2
REMARK    2  A    between atoms: C2_2  and  O2_4
REMARK    3  A    between atoms: O2_4  and  C3_5
REMARK    4  A    between atoms: C8_10  and  C9_11
REMARK    5  A    between atoms: C9_11  and  O4_13
REMARK                            x       y       z     vdW  Elec       q    Type
REMARK                         _______ _______ _______ _____ _____    ______ ____
ROOT
ATOM      1  C3  UNL     1      -4.745  -2.616   0.868  0.00  0.00    +0.000 A 
ATOM      2  C4  UNL     1      -4.635  -1.904   2.079  0.00  0.00    +0.000 A 
ATOM      3  C5  UNL     1      -3.932  -2.442   3.158  0.00  0.00    +0.000 A 
ATOM      4  C6  UNL     1      -3.340  -3.697   3.050  0.00  0.00    +0.000 A 
ATOM      5  C7  UNL     1      -3.455  -4.426   1.865  0.00  0.00    +0.000 A 
ATOM      6  C8  UNL     1      -4.160  -3.903   0.763  0.00  0.00    +0.000 A 
ENDROOT
BRANCH   6   7
ATOM      7  C9  UNL     1      -4.259  -4.715  -0.479  0.00  0.00    +0.000 C 
ATOM      8  O3  UNL     1      -3.285  -5.407  -0.881  0.00  0.00    +0.000 OA
BRANCH   7   9
ATOM      9  O4  UNL     1      -5.439  -4.718  -1.218  0.00  0.00    +0.000 OA
ATOM     10  H8  UNL     1      -6.297  -4.344  -0.831  0.00  0.00    +0.000 HD
ENDBRANCH   7   9
ENDBRANCH   6   7
BRANCH   1  11
ATOM     11  O2  UNL     1      -5.463  -2.085  -0.216  0.00  0.00    +0.000 OA
BRANCH  11  13
ATOM     12  C1  UNL     1      -4.506   0.072  -1.022  0.00  0.00    +0.000 C 
ATOM     13  C2  UNL     1      -4.913  -1.341  -1.266  0.00  0.00    +0.000 C 
ATOM     14  O1  UNL     1      -4.848  -1.813  -2.434  0.00  0.00    +0.000 OA
ENDBRANCH  11  13
ENDBRANCH   1  11
TORSDOF 4
ENDMDL
MODEL 7
REMARK VINA RESULT:    -3.811     14.138     15.132
REMARK INTER + INTRA:          -5.233
REMARK INTER:                  -4.699
REMARK INTRA:                  -0.534
REMARK UNBOUND:                -0.643
REMARK  Name = results/2970eac8-c246-4faa-a76f-d5a129c132dc_ligand.pdb
REMARK  5 active torsions:
REMARK  status: ('A' for Active; 'I' for Inactive)
REMARK    1  A    between atoms: C1_1  and  C2_2
REMARK    2  A    between atoms: C2_2  and  O2_4
REMARK    3  A    between atoms: O2_4  and  C3_5
REMARK    4  A    between atoms: C8_10  and  C9_11
REMARK    5  A    between atoms: C9_11  and  O4_13
REMARK                            x       y       z     vdW  Elec       q    Type
REMARK                         _______ _______ _______ _____ _____    ______ ____
ROOT
ATOM      1  C3  UNL     1      -3.874  -4.517   0.765  0.00  0.00    +0.000 A 
ATOM      2  C4  UNL     1      -4.329  -4.366  -0.560  0.00  0.00    +0.000 A 
ATOM      3  C5  UNL     1      -4.921  -3.173  -0.976  0.00  0.00    +0.000 A 
ATOM      4  C6  UNL     1      -5.078  -2.121  -0.078  0.00  0.00    +0.000 A 
ATOM      5  C7  UNL     1      -4.652  -2.259   1.245  0.00  0.00    +0.000 A 
ATOM      6  C8  UNL     1      -4.052  -3.455   1.686  0.00  0.00    +0.000 A 
ENDROOT
BRANCH   6   7
ATOM      7  C9  UNL     1      -3.615  -3.559   3.104  0.00  0.00    +0.000 C 
ATOM      8  O3  UNL     1      -2.651  -2.872   3.537  0.00  0.00    +0.000 OA
BRANCH   7   9
ATOM      9  O4  UNL     1      -4.271  -4.426   3.974  0.00  0.00    +0.000 OA
ATOM     10  H8  UNL     1      -5.196  -4.779   3.759  0.00  0.00    +0.000 HD
ENDBRANCH   7   9
ENDBRANCH   6   7
BRANCH   1  11
ATOM     11  O2  UNL     1      -3.290  -5.721   1.192  0.00  0.00    +0.000 OA
BRANCH  11  13
ATOM     12  C1  UNL     1      -3.347  -8.170   1.665  0.00  0.00    +0.000 C 
ATOM     13  C2  UNL     1      -3.986  -6.823   1.702  0.00  0.00    +0.000 C 
ATOM     14  O1  UNL     1      -5.177  -6.713   2.100  0.00  0.00    +0.000 OA
ENDBRANCH  11  13
ENDBRANCH   1  11
TORSDOF 4
ENDMDL
MODEL 8
REMARK VINA RESULT:    -3.799     13.826     14.485
REMARK INTER + INTRA:          -5.219
REMARK INTER:                  -4.641
REMARK INTRA:                  -0.577
REMARK UNBOUND:                -0.643
REMARK  Name = results/2970eac8-c246-4faa-a76f-d5a129c132dc_ligand.pdb
REMARK  5 active torsions:
REMARK  status: ('A' for Active; 'I' for Inactive)
REMARK    1  A    between atoms: C1_1  and  C2_2
REMARK    2  A    between atoms: C2_2  and  O2_4
REMARK    3  A    between atoms: O2_4  and  C3_5
REMARK    4  A    between atoms: C8_10  and  C9_11
REMARK    5  A    between atoms: C9_11  and  O4_13
REMARK                            x       y       z     vdW  Elec       q    Type
REMARK                         _______ _______ _______ _____ _____    ______ ____
ROOT
ATOM      1  C3  UNL     1      -4.049  -4.664   1.034  0.00  0.00    +0.000 A 
ATOM      2  C4  UNL     1      -3.263  -5.805   1.290  0.00  0.00    +0.000 A 
ATOM      3  C5  UNL     1      -2.732  -6.552   0.238  0.00  0.00    +0.000 A 
ATOM      4  C6  UNL     1      -2.984  -6.181  -1.080  0.00  0.00    +0.000 A 
ATOM      5  C7  UNL     1      -3.778  -5.065  -1.353  0.00  0.00    +0.000 A 
ATOM      6  C8  UNL     1      -4.325  -4.297  -0.307  0.00  0.00    +0.000 A 
ENDROOT
BRANCH   6   7
ATOM      7  C9  UNL     1      -5.165  -3.117  -0.644  0.00  0.00    +0.000 C 
ATOM      8  O3  UNL     1      -6.273  -3.256  -1.228  0.00  0.00    +0.000 OA
BRANCH   7   9
ATOM      9  O4  UNL     1      -4.733  -1.835  -0.315  0.00  0.00    +0.000 OA
ATOM     10  H8  UNL     1      -4.119  -1.679   0.476  0.00  0.00    +0.000 HD
ENDBRANCH   7   9
ENDBRANCH   6   7
BRANCH   1  11
ATOM     11  O2  UNL     1      -4.598  -3.917   2.089  0.00  0.00    +0.000 OA
BRANCH  11  13
ATOM     12  C1  UNL     1      -2.813  -3.123   3.640  0.00  0.00    +0.000 C 
ATOM     13  C2  UNL     1      -3.969  -2.848   2.739  0.00  0.00    +0.000 C 
ATOM     14  O1  UNL     1      -4.423  -1.675   2.651  0.00  0.00    +0.000 OA
ENDBRANCH  11  13
ENDBRANCH   1  11
TORSDOF 4
ENDMDL
MODEL 9
REMARK VINA RESULT:    -3.726     13.815     15.184
REMARK INTER + INTRA:          -5.131
REMARK INTER:                  -4.458
REMARK INTRA:                  -0.673
REMARK UNBOUND:                -0.643
REMARK  Name = results/2970eac8-c246-4faa-a76f-d5a129c132dc_ligand.pdb
REMARK  5 active torsions:
REMARK  status: ('A' for Active; 'I' for Inactive)
REMARK    1  A    between atoms: C1_1  and  C2_2
REMARK    2  A    between atoms: C2_2  and  O2_4
REMARK    3  A    between atoms: O2_4  and  C3_5
REMARK    4  A    between atoms: C8_10  and  C9_11
REMARK    5  A    between atoms: C9_11  and  O4_13
REMARK                            x       y       z     vdW  Elec       q    Type
REMARK                         _______ _______ _______ _____ _____    ______ ____
ROOT
ATOM      1  C3  UNL     1      -4.378  -4.134   1.102  0.00  0.00    +0.000 A 
ATOM      2  C4  UNL     1      -3.546  -4.461   2.190  0.00  0.00    +0.000 A 
ATOM      3  C5  UNL     1      -3.279  -3.523   3.187  0.00  0.00    +0.000 A 
ATOM      4  C6  UNL     1      -3.827  -2.245   3.109  0.00  0.00    +0.000 A 
ATOM      5  C7  UNL     1      -4.638  -1.897   2.028  0.00  0.00    +0.000 A 
ATOM      6  C8  UNL     1      -4.921  -2.828   1.010  0.00  0.00    +0.000 A 
ENDROOT
BRANCH   6   7
ATOM      7  C9  UNL     1      -5.788  -2.413  -0.125  0.00  0.00    +0.000 C 
ATOM      8  O3  UNL     1      -6.985  -2.069   0.066  0.00  0.00    +0.000 OA
BRANCH   7   9
ATOM      9  O4  UNL     1      -5.282  -2.401  -1.422  0.00  0.00    +0.000 OA
ATOM     10  H8  UNL     1      -4.570  -3.061  -1.710  0.00  0.00    +0.000 HD
ENDBRANCH   7   9
ENDBRANCH   6   7
BRANCH   1  11
ATOM     11  O2  UNL     1      -4.639  -5.072   0.088  0.00  0.00    +0.000 OA
BRANCH  11  13
ATOM     12  C1  UNL     1      -2.688  -6.441  -0.650  0.00  0.00    +0.000 C 
ATOM     13  C2  UNL     1      -3.749  -5.431  -0.931  0.00  0.00    +0.000 C 
ATOM     14  O1  UNL     1      -3.767  -4.845  -2.047  0.00  0.00    +0.000 OA
ENDBRANCH  11  13
ENDBRANCH   1  11
TORSDOF 4
ENDMDL
