MODEL 1
REMARK VINA RESULT:    -6.774      0.000      0.000
REMARK INTER + INTRA:          -8.897
REMARK INTER:                  -8.358
REMARK INTRA:                  -0.539
REMARK UNBOUND:                -0.539
REMARK  Name = C:\Users\Bellamkonda Sowmya\OneDrive\Desktop\2nd yr notes\ps1\authml\authml\backend\results\ligand_1764933943623.pdb
REMARK  4 active torsions:
REMARK  status: ('A' for Active; 'I' for Inactive)
REMARK    1  A    between atoms: S_2  and  N_4
REMARK    2  A    between atoms: S_2  and  C_21
REMARK    3  A    between atoms: N_4  and  C_5
REMARK    4  A    between atoms: C_9  and  C_10
REMARK                            x       y       z     vdW  Elec       q    Type
REMARK                         _______ _______ _______ _____ _____    ______ ____
ROOT
ATOM      1  C   UNL     1      -2.760  -6.548  -0.935  0.00  0.00    +0.000 A 
ATOM      2  C   UNL     1      -3.098  -7.866  -1.291  0.00  0.00    +0.000 A 
ATOM      3  C   UNL     1      -3.259  -8.227  -2.621  0.00  0.00    +0.000 A 
ATOM      4  C   UNL     1      -3.101  -7.283  -3.611  0.00  0.00    +0.000 A 
ATOM      5  C   UNL     1      -2.741  -6.036  -3.268  0.00  0.00    +0.000 A 
ATOM      6  C   UNL     1      -2.618  -5.987  -2.133  0.00  0.00    +0.000 A 
ENDROOT
BRANCH   5   7
ATOM      7  C   UNL     1      -2.532  -4.878  -4.231  0.00  0.00    +0.000 A 
ATOM      8  C   UNL     1       0.072  -6.210  -8.716  0.00  0.00    +0.000 A 
ATOM      9  N   UNL     1      -0.704  -5.904  -7.601  0.00  0.00    +0.000 NA
ATOM     10  C   UNL     1      -0.936  -4.574  -7.257  0.00  0.00    +0.000 A 
ATOM     11  C   UNL     1      -0.490  -3.398  -7.886  0.00  0.00    +0.000 A 
ATOM     12  C   UNL     1      -0.883  -2.150  -7.426  0.00  0.00    +0.000 A 
ATOM     13  C   UNL     1      -1.733  -2.054  -6.347  0.00  0.00    +0.000 A 
ATOM     14  C   UNL     1      -2.126  -3.179  -5.727  0.00  0.00    +0.000 A 
ATOM     15  C   UNL     1      -1.640  -4.073  -6.246  0.00  0.00    +0.000 A 
ATOM     16  N   UNL     1      -1.821  -5.075  -5.412  0.00  0.00    +0.000 NA
ENDBRANCH   5   7
BRANCH   1  17
ATOM     17  N   UNL     1      -2.595  -6.002   0.420  0.00  0.00    +0.000 N 
ATOM     18  H   UNL     1      -1.661  -5.891   0.816  0.00  0.00    +0.000 HD
BRANCH  17  20
ATOM     19  O   UNL     1      -5.157  -5.185   0.411  0.00  0.00    +0.000 OA
ATOM     20  S   UNL     1      -4.010  -5.538   1.359  0.00  0.00    +0.000 S 
ATOM     21  O   UNL     1      -4.430  -6.704   2.257  0.00  0.00    +0.000 OA
BRANCH  20  22
ATOM     22  C   UNL     1      -3.609  -4.102   2.384  0.00  0.00    +0.000 A 
ATOM     23  C   UNL     1      -4.007  -2.685   2.938  0.00  0.00    +0.000 A 
ATOM     24  C   UNL     1      -2.714  -2.984   3.725  0.00  0.00    +0.000 A 
ATOM     25  C   UNL     1      -2.714  -2.984   3.725  0.00  0.00    +0.000 A 
ATOM     26  S   UNL     1      -2.714  -2.984   3.725  0.00  0.00    +0.000 S 
ENDBRANCH  20  22
ENDBRANCH  17  20
ENDBRANCH   1  17
TORSDOF 4
ENDMDL
