MODEL 1
REMARK VINA RESULT:    -2.939      0.000      0.000
REMARK INTER + INTRA:          -3.606
REMARK INTER:                  -3.454
REMARK INTRA:                  -0.152
REMARK UNBOUND:                -0.152
REMARK  Name = C:\DDRIVE\PROJECT\authml\backend\results\ligand_1764475367687.pdb
REMARK  6 active torsions:
REMARK  status: ('A' for Active; 'I' for Inactive)
REMARK    1  A    between atoms: C_1  and  C_2
REMARK    2  A    between atoms: C_2  and  N_3
REMARK    3  A    between atoms: N_3  and  C_4
REMARK    4  A    between atoms: N_3  and  C_6
REMARK    5  A    between atoms: C_4  and  C_5
REMARK    6  A    between atoms: C_6  and  C_7
REMARK                            x       y       z     vdW  Elec       q    Type
REMARK                         _______ _______ _______ _____ _____    ______ ____
ROOT
ATOM      1  N   UNL     1      -4.461  -3.218   2.157  0.00  0.00    +0.000 NA
ENDROOT
BRANCH   1   3
ATOM      2  C   UNL     1      -2.611  -2.876   3.808  0.00  0.00    +0.000 C 
ATOM      3  C   UNL     1      -3.417  -3.862   2.967  0.00  0.00    +0.000 C 
ENDBRANCH   1   3
BRANCH   1   4
ATOM      4  C   UNL     1      -4.585  -1.766   2.385  0.00  0.00    +0.000 C 
ATOM      5  C   UNL     1      -5.928  -1.269   2.915  0.00  0.00    +0.000 C 
ENDBRANCH   1   4
BRANCH   1   6
ATOM      6  C   UNL     1      -4.336  -3.526   0.724  0.00  0.00    +0.000 C 
ATOM      7  C   UNL     1      -3.650  -4.865   0.458  0.00  0.00    +0.000 C 
ENDBRANCH   1   6
TORSDOF 3
ENDMDL
MODEL 2
REMARK VINA RESULT:    -2.917      0.167      3.170
REMARK INTER + INTRA:          -3.580
REMARK INTER:                  -3.422
REMARK INTRA:                  -0.158
REMARK UNBOUND:                -0.152
REMARK  Name = C:\DDRIVE\PROJECT\authml\backend\results\ligand_1764475367687.pdb
REMARK  6 active torsions:
REMARK  status: ('A' for Active; 'I' for Inactive)
REMARK    1  A    between atoms: C_1  and  C_2
REMARK    2  A    between atoms: C_2  and  N_3
REMARK    3  A    between atoms: N_3  and  C_4
REMARK    4  A    between atoms: N_3  and  C_6
REMARK    5  A    between atoms: C_4  and  C_5
REMARK    6  A    between atoms: C_6  and  C_7
REMARK                            x       y       z     vdW  Elec       q    Type
REMARK                         _______ _______ _______ _____ _____    ______ ____
ROOT
ATOM      1  N   UNL     1      -4.558  -3.244   2.176  0.00  0.00    +0.000 NA
ENDROOT
BRANCH   1   3
ATOM      2  C   UNL     1      -3.484  -4.932   0.672  0.00  0.00    +0.000 C 
ATOM      3  C   UNL     1      -4.342  -3.675   0.787  0.00  0.00    +0.000 C 
ENDBRANCH   1   3
BRANCH   1   4
ATOM      4  C   UNL     1      -3.620  -3.844   3.142  0.00  0.00    +0.000 C 
ATOM      5  C   UNL     1      -2.615  -2.899   3.797  0.00  0.00    +0.000 C 
ENDBRANCH   1   4
BRANCH   1   6
ATOM      6  C   UNL     1      -4.604  -1.780   2.313  0.00  0.00    +0.000 C 
ATOM      7  C   UNL     1      -5.928  -1.275   2.884  0.00  0.00    +0.000 C 
ENDBRANCH   1   6
TORSDOF 3
ENDMDL
MODEL 3
REMARK VINA RESULT:    -2.908      0.133      3.231
REMARK INTER + INTRA:          -3.570
REMARK INTER:                  -3.419
REMARK INTRA:                  -0.151
REMARK UNBOUND:                -0.152
REMARK  Name = C:\DDRIVE\PROJECT\authml\backend\results\ligand_1764475367687.pdb
REMARK  6 active torsions:
REMARK  status: ('A' for Active; 'I' for Inactive)
REMARK    1  A    between atoms: C_1  and  C_2
REMARK    2  A    between atoms: C_2  and  N_3
REMARK    3  A    between atoms: N_3  and  C_4
REMARK    4  A    between atoms: N_3  and  C_6
REMARK    5  A    between atoms: C_4  and  C_5
REMARK    6  A    between atoms: C_6  and  C_7
REMARK                            x       y       z     vdW  Elec       q    Type
REMARK                         _______ _______ _______ _____ _____    ______ ____
ROOT
ATOM      1  N   UNL     1      -4.537  -3.237   2.104  0.00  0.00    +0.000 NA
ENDROOT
BRANCH   1   3
ATOM      2  C   UNL     1      -5.907  -1.294   2.887  0.00  0.00    +0.000 C 
ATOM      3  C   UNL     1      -4.572  -1.785   2.335  0.00  0.00    +0.000 C 
ENDBRANCH   1   3
BRANCH   1   4
ATOM      4  C   UNL     1      -4.258  -3.615   0.706  0.00  0.00    +0.000 C 
ATOM      5  C   UNL     1      -3.589  -4.969   0.483  0.00  0.00    +0.000 C 
ENDBRANCH   1   4
BRANCH   1   6
ATOM      6  C   UNL     1      -3.639  -3.937   3.036  0.00  0.00    +0.000 C 
ATOM      7  C   UNL     1      -2.688  -2.993   3.771  0.00  0.00    +0.000 C 
ENDBRANCH   1   6
TORSDOF 3
ENDMDL
MODEL 4
REMARK VINA RESULT:    -2.897      0.637      2.539
REMARK INTER + INTRA:          -3.557
REMARK INTER:                  -3.401
REMARK INTRA:                  -0.156
REMARK UNBOUND:                -0.152
REMARK  Name = C:\DDRIVE\PROJECT\authml\backend\results\ligand_1764475367687.pdb
REMARK  6 active torsions:
REMARK  status: ('A' for Active; 'I' for Inactive)
REMARK    1  A    between atoms: C_1  and  C_2
REMARK    2  A    between atoms: C_2  and  N_3
REMARK    3  A    between atoms: N_3  and  C_4
REMARK    4  A    between atoms: N_3  and  C_6
REMARK    5  A    between atoms: C_4  and  C_5
REMARK    6  A    between atoms: C_6  and  C_7
REMARK                            x       y       z     vdW  Elec       q    Type
REMARK                         _______ _______ _______ _____ _____    ______ ____
ROOT
ATOM      1  N   UNL     1      -4.272  -3.101   2.044  0.00  0.00    +0.000 NA
ENDROOT
BRANCH   1   3
ATOM      2  C   UNL     1      -3.463  -5.200   0.948  0.00  0.00    +0.000 C 
ATOM      3  C   UNL     1      -4.145  -3.845   0.782  0.00  0.00    +0.000 C 
ENDBRANCH   1   3
BRANCH   1   4
ATOM      4  C   UNL     1      -5.663  -2.765   2.404  0.00  0.00    +0.000 C 
ATOM      5  C   UNL     1      -5.930  -1.323   2.831  0.00  0.00    +0.000 C 
ENDBRANCH   1   4
BRANCH   1   6
ATOM      6  C   UNL     1      -3.574  -3.756   3.161  0.00  0.00    +0.000 C 
ATOM      7  C   UNL     1      -2.546  -2.850   3.836  0.00  0.00    +0.000 C 
ENDBRANCH   1   6
TORSDOF 3
ENDMDL
MODEL 5
REMARK VINA RESULT:    -2.867      0.653      2.941
REMARK INTER + INTRA:          -3.522
REMARK INTER:                  -3.368
REMARK INTRA:                  -0.154
REMARK UNBOUND:                -0.152
REMARK  Name = C:\DDRIVE\PROJECT\authml\backend\results\ligand_1764475367687.pdb
REMARK  6 active torsions:
REMARK  status: ('A' for Active; 'I' for Inactive)
REMARK    1  A    between atoms: C_1  and  C_2
REMARK    2  A    between atoms: C_2  and  N_3
REMARK    3  A    between atoms: N_3  and  C_4
REMARK    4  A    between atoms: N_3  and  C_6
REMARK    5  A    between atoms: C_4  and  C_5
REMARK    6  A    between atoms: C_6  and  C_7
REMARK                            x       y       z     vdW  Elec       q    Type
REMARK                         _______ _______ _______ _____ _____    ______ ____
ROOT
ATOM      1  N   UNL     1      -4.231  -3.084   2.107  0.00  0.00    +0.000 NA
ENDROOT
BRANCH   1   3
ATOM      2  C   UNL     1      -2.503  -2.776   3.892  0.00  0.00    +0.000 C 
ATOM      3  C   UNL     1      -3.533  -3.698   3.246  0.00  0.00    +0.000 C 
ENDBRANCH   1   3
BRANCH   1   4
ATOM      4  C   UNL     1      -4.087  -3.831   0.843  0.00  0.00    +0.000 C 
ATOM      5  C   UNL     1      -3.503  -5.238   0.943  0.00  0.00    +0.000 C 
ENDBRANCH   1   4
BRANCH   1   6
ATOM      6  C   UNL     1      -5.643  -2.793   2.398  0.00  0.00    +0.000 C 
ATOM      7  C   UNL     1      -5.884  -1.336   2.792  0.00  0.00    +0.000 C 
ENDBRANCH   1   6
TORSDOF 3
ENDMDL
MODEL 6
REMARK VINA RESULT:    -2.788      1.408      2.675
REMARK INTER + INTRA:          -3.428
REMARK INTER:                  -3.298
REMARK INTRA:                  -0.130
REMARK UNBOUND:                -0.152
REMARK  Name = C:\DDRIVE\PROJECT\authml\backend\results\ligand_1764475367687.pdb
REMARK  6 active torsions:
REMARK  status: ('A' for Active; 'I' for Inactive)
REMARK    1  A    between atoms: C_1  and  C_2
REMARK    2  A    between atoms: C_2  and  N_3
REMARK    3  A    between atoms: N_3  and  C_4
REMARK    4  A    between atoms: N_3  and  C_6
REMARK    5  A    between atoms: C_4  and  C_5
REMARK    6  A    between atoms: C_6  and  C_7
REMARK                            x       y       z     vdW  Elec       q    Type
REMARK                         _______ _______ _______ _____ _____    ______ ____
ROOT
ATOM      1  N   UNL     1      -3.588  -4.120   1.565  0.00  0.00    +0.000 NA
ENDROOT
BRANCH   1   3
ATOM      2  C   UNL     1      -4.788  -2.094   0.717  0.00  0.00    +0.000 C 
ATOM      3  C   UNL     1      -4.408  -3.554   0.484  0.00  0.00    +0.000 C 
ENDBRANCH   1   3
BRANCH   1   4
ATOM      4  C   UNL     1      -3.896  -3.573   2.900  0.00  0.00    +0.000 C 
ATOM      5  C   UNL     1      -2.716  -3.036   3.708  0.00  0.00    +0.000 C 
ENDBRANCH   1   4
BRANCH   1   6
ATOM      6  C   UNL     1      -3.602  -5.592   1.575  0.00  0.00    +0.000 C 
ATOM      7  C   UNL     1      -2.880  -6.203   0.375  0.00  0.00    +0.000 C 
ENDBRANCH   1   6
TORSDOF 3
ENDMDL
MODEL 7
REMARK VINA RESULT:    -2.647      1.788      2.234
REMARK INTER + INTRA:          -3.263
REMARK INTER:                  -3.070
REMARK INTRA:                  -0.193
REMARK UNBOUND:                -0.152
REMARK  Name = C:\DDRIVE\PROJECT\authml\backend\results\ligand_1764475367687.pdb
REMARK  6 active torsions:
REMARK  status: ('A' for Active; 'I' for Inactive)
REMARK    1  A    between atoms: C_1  and  C_2
REMARK    2  A    between atoms: C_2  and  N_3
REMARK    3  A    between atoms: N_3  and  C_4
REMARK    4  A    between atoms: N_3  and  C_6
REMARK    5  A    between atoms: C_4  and  C_5
REMARK    6  A    between atoms: C_6  and  C_7
REMARK                            x       y       z     vdW  Elec       q    Type
REMARK                         _______ _______ _______ _____ _____    ______ ____
ROOT
ATOM      1  N   UNL     1      -4.069  -4.862   2.450  0.00  0.00    +0.000 NA
ENDROOT
BRANCH   1   3
ATOM      2  C   UNL     1      -2.764  -3.089   3.640  0.00  0.00    +0.000 C 
ATOM      3  C   UNL     1      -4.092  -3.504   3.012  0.00  0.00    +0.000 C 
ENDBRANCH   1   3
BRANCH   1   4
ATOM      4  C   UNL     1      -5.375  -5.547   2.484  0.00  0.00    +0.000 C 
ATOM      5  C   UNL     1      -6.554  -4.745   3.032  0.00  0.00    +0.000 C 
ENDBRANCH   1   4
BRANCH   1   6
ATOM      6  C   UNL     1      -3.477  -4.908   1.103  0.00  0.00    +0.000 C 
ATOM      7  C   UNL     1      -4.273  -4.107   0.074  0.00  0.00    +0.000 C 
ENDBRANCH   1   6
TORSDOF 3
ENDMDL
MODEL 8
REMARK VINA RESULT:    -2.549     13.571     14.507
REMARK INTER + INTRA:          -3.147
REMARK INTER:                  -2.992
REMARK INTRA:                  -0.155
REMARK UNBOUND:                -0.152
REMARK  Name = C:\DDRIVE\PROJECT\authml\backend\results\ligand_1764475367687.pdb
REMARK  6 active torsions:
REMARK  status: ('A' for Active; 'I' for Inactive)
REMARK    1  A    between atoms: C_1  and  C_2
REMARK    2  A    between atoms: C_2  and  N_3
REMARK    3  A    between atoms: N_3  and  C_4
REMARK    4  A    between atoms: N_3  and  C_6
REMARK    5  A    between atoms: C_4  and  C_5
REMARK    6  A    between atoms: C_6  and  C_7
REMARK                            x       y       z     vdW  Elec       q    Type
REMARK                         _______ _______ _______ _____ _____    ______ ____
ROOT
ATOM      1  N   UNL     1       8.965  -5.093  -2.199  0.00  0.00    +0.000 NA
ENDROOT
BRANCH   1   3
ATOM      2  C   UNL     1       8.977  -6.969  -0.542  0.00  0.00    +0.000 C 
ATOM      3  C   UNL     1       8.445  -5.588  -0.916  0.00  0.00    +0.000 C 
ENDBRANCH   1   3
BRANCH   1   4
ATOM      4  C   UNL     1       9.956  -4.008  -2.065  0.00  0.00    +0.000 C 
ATOM      5  C   UNL     1      10.715  -3.615  -3.329  0.00  0.00    +0.000 C 
ENDBRANCH   1   4
BRANCH   1   6
ATOM      6  C   UNL     1       9.470  -6.174  -3.060  0.00  0.00    +0.000 C 
ATOM      7  C   UNL     1       8.503  -6.542  -4.184  0.00  0.00    +0.000 C 
ENDBRANCH   1   6
TORSDOF 3
ENDMDL
MODEL 9
REMARK VINA RESULT:    -2.509     13.691     14.726
REMARK INTER + INTRA:          -3.100
REMARK INTER:                  -2.956
REMARK INTRA:                  -0.145
REMARK UNBOUND:                -0.152
REMARK  Name = C:\DDRIVE\PROJECT\authml\backend\results\ligand_1764475367687.pdb
REMARK  6 active torsions:
REMARK  status: ('A' for Active; 'I' for Inactive)
REMARK    1  A    between atoms: C_1  and  C_2
REMARK    2  A    between atoms: C_2  and  N_3
REMARK    3  A    between atoms: N_3  and  C_4
REMARK    4  A    between atoms: N_3  and  C_6
REMARK    5  A    between atoms: C_4  and  C_5
REMARK    6  A    between atoms: C_6  and  C_7
REMARK                            x       y       z     vdW  Elec       q    Type
REMARK                         _______ _______ _______ _____ _____    ______ ____
ROOT
ATOM      1  N   UNL     1       9.765  -4.969  -1.992  0.00  0.00    +0.000 NA
ENDROOT
BRANCH   1   3
ATOM      2  C   UNL     1       8.664  -6.388  -3.736  0.00  0.00    +0.000 C 
ATOM      3  C   UNL     1       9.887  -5.570  -3.328  0.00  0.00    +0.000 C 
ENDBRANCH   1   3
BRANCH   1   4
ATOM      4  C   UNL     1      10.191  -3.559  -1.928  0.00  0.00    +0.000 C 
ATOM      5  C   UNL     1      10.845  -2.984  -3.182  0.00  0.00    +0.000 C 
ENDBRANCH   1   4
BRANCH   1   6
ATOM      6  C   UNL     1       8.426  -5.150  -1.410  0.00  0.00    +0.000 C 
ATOM      7  C   UNL     1       8.454  -5.859  -0.057  0.00  0.00    +0.000 C 
ENDBRANCH   1   6
TORSDOF 3
ENDMDL
