MODEL 1
REMARK VINA RESULT:    -3.106      0.000      0.000
REMARK INTER + INTRA:          -3.803
REMARK INTER:                  -3.650
REMARK INTRA:                  -0.153
REMARK UNBOUND:                -0.153
REMARK  Name = results/c454ce40-3572-4f71-8717-66b130d0967b_ligand.pdb
REMARK  6 active torsions:
REMARK  status: ('A' for Active; 'I' for Inactive)
REMARK    1  A    between atoms: C1_1  and  C2_2
REMARK    2  A    between atoms: C2_2  and  N1_3
REMARK    3  A    between atoms: N1_3  and  C3_4
REMARK    4  A    between atoms: N1_3  and  C5_6
REMARK    5  A    between atoms: C3_4  and  C4_5
REMARK    6  A    between atoms: C5_6  and  C6_7
REMARK                            x       y       z     vdW  Elec       q    Type
REMARK                         _______ _______ _______ _____ _____    ______ ____
ROOT
ATOM      1  N1  UNL     1       5.691   2.831   5.312  0.00  0.00    +0.000 NA
ENDROOT
BRANCH   1   3
ATOM      2  C1  UNL     1       3.318   2.271   4.991  0.00  0.00    +0.000 C 
ATOM      3  C2  UNL     1       4.742   2.008   4.517  0.00  0.00    +0.000 C 
ENDBRANCH   1   3
BRANCH   1   4
ATOM      4  C3  UNL     1       5.450   4.281   5.127  0.00  0.00    +0.000 C 
ATOM      5  C4  UNL     1       5.484   5.019   6.465  0.00  0.00    +0.000 C 
ENDBRANCH   1   4
BRANCH   1   6
ATOM      6  C5  UNL     1       7.100   2.497   5.004  0.00  0.00    +0.000 C 
ATOM      7  C6  UNL     1       7.219   1.076   4.455  0.00  0.00    +0.000 C 
ENDBRANCH   1   6
TORSDOF 3
ENDMDL
MODEL 2
REMARK VINA RESULT:    -3.095      1.656      2.639
REMARK INTER + INTRA:          -3.791
REMARK INTER:                  -3.590
REMARK INTRA:                  -0.202
REMARK UNBOUND:                -0.153
REMARK  Name = results/c454ce40-3572-4f71-8717-66b130d0967b_ligand.pdb
REMARK  6 active torsions:
REMARK  status: ('A' for Active; 'I' for Inactive)
REMARK    1  A    between atoms: C1_1  and  C2_2
REMARK    2  A    between atoms: C2_2  and  N1_3
REMARK    3  A    between atoms: N1_3  and  C3_4
REMARK    4  A    between atoms: N1_3  and  C5_6
REMARK    5  A    between atoms: C3_4  and  C4_5
REMARK    6  A    between atoms: C5_6  and  C6_7
REMARK                            x       y       z     vdW  Elec       q    Type
REMARK                         _______ _______ _______ _____ _____    ______ ____
ROOT
ATOM      1  N1  UNL     1       6.875   2.489   4.674  0.00  0.00    +0.000 NA
ENDROOT
BRANCH   1   3
ATOM      2  C1  UNL     1       6.800   0.032   4.752  0.00  0.00    +0.000 C 
ATOM      3  C2  UNL     1       6.031   1.298   4.395  0.00  0.00    +0.000 C 
ENDBRANCH   1   3
BRANCH   1   4
ATOM      4  C3  UNL     1       7.361   2.503   6.073  0.00  0.00    +0.000 C 
ATOM      5  C4  UNL     1       6.283   3.026   7.023  0.00  0.00    +0.000 C 
ENDBRANCH   1   4
BRANCH   1   6
ATOM      6  C5  UNL     1       6.167   3.751   4.359  0.00  0.00    +0.000 C 
ATOM      7  C6  UNL     1       4.920   3.484   3.517  0.00  0.00    +0.000 C 
ENDBRANCH   1   6
TORSDOF 3
ENDMDL
MODEL 3
REMARK VINA RESULT:    -3.089      1.679      2.438
REMARK INTER + INTRA:          -3.783
REMARK INTER:                  -3.582
REMARK INTRA:                  -0.202
REMARK UNBOUND:                -0.153
REMARK  Name = results/c454ce40-3572-4f71-8717-66b130d0967b_ligand.pdb
REMARK  6 active torsions:
REMARK  status: ('A' for Active; 'I' for Inactive)
REMARK    1  A    between atoms: C1_1  and  C2_2
REMARK    2  A    between atoms: C2_2  and  N1_3
REMARK    3  A    between atoms: N1_3  and  C3_4
REMARK    4  A    between atoms: N1_3  and  C5_6
REMARK    5  A    between atoms: C3_4  and  C4_5
REMARK    6  A    between atoms: C5_6  and  C6_7
REMARK                            x       y       z     vdW  Elec       q    Type
REMARK                         _______ _______ _______ _____ _____    ______ ____
ROOT
ATOM      1  N1  UNL     1       6.894   2.489   4.735  0.00  0.00    +0.000 NA
ENDROOT
BRANCH   1   3
ATOM      2  C1  UNL     1       6.236   2.908   7.066  0.00  0.00    +0.000 C 
ATOM      3  C2  UNL     1       7.373   2.492   6.142  0.00  0.00    +0.000 C 
ENDBRANCH   1   3
BRANCH   1   4
ATOM      4  C3  UNL     1       6.219   3.759   4.382  0.00  0.00    +0.000 C 
ATOM      5  C4  UNL     1       4.948   3.498   3.572  0.00  0.00    +0.000 C 
ENDBRANCH   1   4
BRANCH   1   6
ATOM      6  C5  UNL     1       6.007   1.336   4.458  0.00  0.00    +0.000 C 
ATOM      7  C6  UNL     1       6.727   0.014   4.723  0.00  0.00    +0.000 C 
ENDBRANCH   1   6
TORSDOF 3
ENDMDL
MODEL 4
REMARK VINA RESULT:    -3.086      1.645      3.047
REMARK INTER + INTRA:          -3.780
REMARK INTER:                  -3.577
REMARK INTRA:                  -0.203
REMARK UNBOUND:                -0.153
REMARK  Name = results/c454ce40-3572-4f71-8717-66b130d0967b_ligand.pdb
REMARK  6 active torsions:
REMARK  status: ('A' for Active; 'I' for Inactive)
REMARK    1  A    between atoms: C1_1  and  C2_2
REMARK    2  A    between atoms: C2_2  and  N1_3
REMARK    3  A    between atoms: N1_3  and  C3_4
REMARK    4  A    between atoms: N1_3  and  C5_6
REMARK    5  A    between atoms: C3_4  and  C4_5
REMARK    6  A    between atoms: C5_6  and  C6_7
REMARK                            x       y       z     vdW  Elec       q    Type
REMARK                         _______ _______ _______ _____ _____    ______ ____
ROOT
ATOM      1  N1  UNL     1       6.903   2.520   4.692  0.00  0.00    +0.000 NA
ENDROOT
BRANCH   1   3
ATOM      2  C1  UNL     1       4.913   3.439   3.578  0.00  0.00    +0.000 C 
ATOM      3  C2  UNL     1       6.135   3.765   4.427  0.00  0.00    +0.000 C 
ENDBRANCH   1   3
BRANCH   1   4
ATOM      4  C3  UNL     1       6.109   1.308   4.386  0.00  0.00    +0.000 C 
ATOM      5  C4  UNL     1       6.867   0.040   4.779  0.00  0.00    +0.000 C 
ENDBRANCH   1   4
BRANCH   1   6
ATOM      6  C5  UNL     1       7.406   2.471   6.084  0.00  0.00    +0.000 C 
ATOM      7  C6  UNL     1       6.395   3.081   7.055  0.00  0.00    +0.000 C 
ENDBRANCH   1   6
TORSDOF 3
ENDMDL
MODEL 5
REMARK VINA RESULT:    -3.080      0.101      3.224
REMARK INTER + INTRA:          -3.774
REMARK INTER:                  -3.619
REMARK INTRA:                  -0.155
REMARK UNBOUND:                -0.153
REMARK  Name = results/c454ce40-3572-4f71-8717-66b130d0967b_ligand.pdb
REMARK  6 active torsions:
REMARK  status: ('A' for Active; 'I' for Inactive)
REMARK    1  A    between atoms: C1_1  and  C2_2
REMARK    2  A    between atoms: C2_2  and  N1_3
REMARK    3  A    between atoms: N1_3  and  C3_4
REMARK    4  A    between atoms: N1_3  and  C5_6
REMARK    5  A    between atoms: C3_4  and  C4_5
REMARK    6  A    between atoms: C5_6  and  C6_7
REMARK                            x       y       z     vdW  Elec       q    Type
REMARK                         _______ _______ _______ _____ _____    ______ ____
ROOT
ATOM      1  N1  UNL     1       5.655   2.840   5.327  0.00  0.00    +0.000 NA
ENDROOT
BRANCH   1   3
ATOM      2  C1  UNL     1       5.426   4.980   6.515  0.00  0.00    +0.000 C 
ATOM      3  C2  UNL     1       5.470   4.304   5.150  0.00  0.00    +0.000 C 
ENDBRANCH   1   3
BRANCH   1   4
ATOM      4  C3  UNL     1       7.038   2.418   5.004  0.00  0.00    +0.000 C 
ATOM      5  C4  UNL     1       7.066   0.982   4.480  0.00  0.00    +0.000 C 
ENDBRANCH   1   4
BRANCH   1   6
ATOM      6  C5  UNL     1       4.678   2.063   4.530  0.00  0.00    +0.000 C 
ATOM      7  C6  UNL     1       3.261   2.244   5.073  0.00  0.00    +0.000 C 
ENDBRANCH   1   6
TORSDOF 3
ENDMDL
MODEL 6
REMARK VINA RESULT:    -3.076      0.171      3.168
REMARK INTER + INTRA:          -3.769
REMARK INTER:                  -3.612
REMARK INTRA:                  -0.157
REMARK UNBOUND:                -0.153
REMARK  Name = results/c454ce40-3572-4f71-8717-66b130d0967b_ligand.pdb
REMARK  6 active torsions:
REMARK  status: ('A' for Active; 'I' for Inactive)
REMARK    1  A    between atoms: C1_1  and  C2_2
REMARK    2  A    between atoms: C2_2  and  N1_3
REMARK    3  A    between atoms: N1_3  and  C3_4
REMARK    4  A    between atoms: N1_3  and  C5_6
REMARK    5  A    between atoms: C3_4  and  C4_5
REMARK    6  A    between atoms: C5_6  and  C6_7
REMARK                            x       y       z     vdW  Elec       q    Type
REMARK                         _______ _______ _______ _____ _____    ______ ____
ROOT
ATOM      1  N1  UNL     1       5.738   2.786   5.411  0.00  0.00    +0.000 NA
ENDROOT
BRANCH   1   3
ATOM      2  C1  UNL     1       7.107   0.963   4.489  0.00  0.00    +0.000 C 
ATOM      3  C2  UNL     1       7.128   2.281   5.253  0.00  0.00    +0.000 C 
ENDBRANCH   1   3
BRANCH   1   4
ATOM      4  C3  UNL     1       4.789   2.066   4.531  0.00  0.00    +0.000 C 
ATOM      5  C4  UNL     1       3.346   2.280   4.990  0.00  0.00    +0.000 C 
ENDBRANCH   1   4
BRANCH   1   6
ATOM      6  C5  UNL     1       5.655   4.246   5.177  0.00  0.00    +0.000 C 
ATOM      7  C6  UNL     1       5.523   5.005   6.497  0.00  0.00    +0.000 C 
ENDBRANCH   1   6
TORSDOF 3
ENDMDL
MODEL 7
REMARK VINA RESULT:    -2.999      0.900      2.698
REMARK INTER + INTRA:          -3.678
REMARK INTER:                  -3.494
REMARK INTRA:                  -0.184
REMARK UNBOUND:                -0.153
REMARK  Name = results/c454ce40-3572-4f71-8717-66b130d0967b_ligand.pdb
REMARK  6 active torsions:
REMARK  status: ('A' for Active; 'I' for Inactive)
REMARK    1  A    between atoms: C1_1  and  C2_2
REMARK    2  A    between atoms: C2_2  and  N1_3
REMARK    3  A    between atoms: N1_3  and  C3_4
REMARK    4  A    between atoms: N1_3  and  C5_6
REMARK    5  A    between atoms: C3_4  and  C4_5
REMARK    6  A    between atoms: C5_6  and  C6_7
REMARK                            x       y       z     vdW  Elec       q    Type
REMARK                         _______ _______ _______ _____ _____    ______ ____
ROOT
ATOM      1  N1  UNL     1       5.726   3.318   4.942  0.00  0.00    +0.000 NA
ENDROOT
BRANCH   1   3
ATOM      2  C1  UNL     1       3.455   2.378   5.018  0.00  0.00    +0.000 C 
ATOM      3  C2  UNL     1       4.786   2.379   4.276  0.00  0.00    +0.000 C 
ENDBRANCH   1   3
BRANCH   1   4
ATOM      4  C3  UNL     1       6.323   2.727   6.161  0.00  0.00    +0.000 C 
ATOM      5  C4  UNL     1       7.723   2.182   5.877  0.00  0.00    +0.000 C 
ENDBRANCH   1   4
BRANCH   1   6
ATOM      6  C5  UNL     1       5.077   4.612   5.259  0.00  0.00    +0.000 C 
ATOM      7  C6  UNL     1       5.468   5.094   6.655  0.00  0.00    +0.000 C 
ENDBRANCH   1   6
TORSDOF 3
ENDMDL
MODEL 8
REMARK VINA RESULT:    -2.977      1.435      3.398
REMARK INTER + INTRA:          -3.652
REMARK INTER:                  -3.457
REMARK INTRA:                  -0.196
REMARK UNBOUND:                -0.153
REMARK  Name = results/c454ce40-3572-4f71-8717-66b130d0967b_ligand.pdb
REMARK  6 active torsions:
REMARK  status: ('A' for Active; 'I' for Inactive)
REMARK    1  A    between atoms: C1_1  and  C2_2
REMARK    2  A    between atoms: C2_2  and  N1_3
REMARK    3  A    between atoms: N1_3  and  C3_4
REMARK    4  A    between atoms: N1_3  and  C5_6
REMARK    5  A    between atoms: C3_4  and  C4_5
REMARK    6  A    between atoms: C5_6  and  C6_7
REMARK                            x       y       z     vdW  Elec       q    Type
REMARK                         _______ _______ _______ _____ _____    ______ ____
ROOT
ATOM      1  N1  UNL     1       5.569   1.847   5.333  0.00  0.00    +0.000 NA
ENDROOT
BRANCH   1   3
ATOM      2  C1  UNL     1       6.400   2.804   7.440  0.00  0.00    +0.000 C 
ATOM      3  C2  UNL     1       6.632   2.692   5.938  0.00  0.00    +0.000 C 
ENDBRANCH   1   3
BRANCH   1   4
ATOM      4  C3  UNL     1       6.107   0.960   4.276  0.00  0.00    +0.000 C 
ATOM      5  C4  UNL     1       7.613   0.755   4.445  0.00  0.00    +0.000 C 
ENDBRANCH   1   4
BRANCH   1   6
ATOM      6  C5  UNL     1       4.452   2.664   4.804  0.00  0.00    +0.000 C 
ATOM      7  C6  UNL     1       4.900   3.488   3.598  0.00  0.00    +0.000 C 
ENDBRANCH   1   6
TORSDOF 3
ENDMDL
MODEL 9
REMARK VINA RESULT:    -2.965      1.520      2.776
REMARK INTER + INTRA:          -3.638
REMARK INTER:                  -3.435
REMARK INTRA:                  -0.203
REMARK UNBOUND:                -0.153
REMARK  Name = results/c454ce40-3572-4f71-8717-66b130d0967b_ligand.pdb
REMARK  6 active torsions:
REMARK  status: ('A' for Active; 'I' for Inactive)
REMARK    1  A    between atoms: C1_1  and  C2_2
REMARK    2  A    between atoms: C2_2  and  N1_3
REMARK    3  A    between atoms: N1_3  and  C3_4
REMARK    4  A    between atoms: N1_3  and  C5_6
REMARK    5  A    between atoms: C3_4  and  C4_5
REMARK    6  A    between atoms: C5_6  and  C6_7
REMARK                            x       y       z     vdW  Elec       q    Type
REMARK                         _______ _______ _______ _____ _____    ______ ____
ROOT
ATOM      1  N1  UNL     1       5.625   1.680   5.255  0.00  0.00    +0.000 NA
ENDROOT
BRANCH   1   3
ATOM      2  C1  UNL     1       7.731   0.804   4.337  0.00  0.00    +0.000 C 
ATOM      3  C2  UNL     1       6.389   0.439   4.960  0.00  0.00    +0.000 C 
ENDBRANCH   1   3
BRANCH   1   4
ATOM      4  C3  UNL     1       5.149   2.340   4.017  0.00  0.00    +0.000 C 
ATOM      5  C4  UNL     1       5.377   3.850   4.078  0.00  0.00    +0.000 C 
ENDBRANCH   1   4
BRANCH   1   6
ATOM      6  C5  UNL     1       6.411   2.627   6.077  0.00  0.00    +0.000 C 
ATOM      7  C6  UNL     1       6.441   2.189   7.541  0.00  0.00    +0.000 C 
ENDBRANCH   1   6
TORSDOF 3
ENDMDL
