MODEL 1
REMARK VINA RESULT:    -2.949      0.000      0.000
REMARK INTER + INTRA:          -3.623
REMARK INTER:                  -3.466
REMARK INTRA:                  -0.157
REMARK UNBOUND:                -0.157
REMARK  Name = results/0b2d33b1-a8a5-4a58-a8a2-69965f71a080_ligand.pdb
REMARK  6 active torsions:
REMARK  status: ('A' for Active; 'I' for Inactive)
REMARK    1  A    between atoms: C1_1  and  C2_2
REMARK    2  A    between atoms: C2_2  and  N1_3
REMARK    3  A    between atoms: N1_3  and  C3_4
REMARK    4  A    between atoms: N1_3  and  C5_6
REMARK    5  A    between atoms: C3_4  and  C4_5
REMARK    6  A    between atoms: C5_6  and  C6_7
REMARK                            x       y       z     vdW  Elec       q    Type
REMARK                         _______ _______ _______ _____ _____    ______ ____
ROOT
ATOM      1  N1  UNL     1      -4.564  -3.220   2.297  0.00  0.00    +0.000 NA
ENDROOT
BRANCH   1   3
ATOM      2  C1  UNL     1      -3.585  -4.927   0.823  0.00  0.00    +0.000 C 
ATOM      3  C2  UNL     1      -4.215  -3.541   0.889  0.00  0.00    +0.000 C 
ENDBRANCH   1   3
BRANCH   1   4
ATOM      4  C3  UNL     1      -4.614  -1.759   2.533  0.00  0.00    +0.000 C 
ATOM      5  C4  UNL     1      -6.047  -1.293   2.791  0.00  0.00    +0.000 C 
ENDBRANCH   1   4
BRANCH   1   6
ATOM      6  C5  UNL     1      -3.637  -3.867   3.254  0.00  0.00    +0.000 C 
ATOM      7  C6  UNL     1      -2.614  -2.865   3.789  0.00  0.00    +0.000 C 
ENDBRANCH   1   6
TORSDOF 3
ENDMDL
MODEL 2
REMARK VINA RESULT:    -2.928      0.123      3.160
REMARK INTER + INTRA:          -3.599
REMARK INTER:                  -3.439
REMARK INTRA:                  -0.160
REMARK UNBOUND:                -0.157
REMARK  Name = results/0b2d33b1-a8a5-4a58-a8a2-69965f71a080_ligand.pdb
REMARK  6 active torsions:
REMARK  status: ('A' for Active; 'I' for Inactive)
REMARK    1  A    between atoms: C1_1  and  C2_2
REMARK    2  A    between atoms: C2_2  and  N1_3
REMARK    3  A    between atoms: N1_3  and  C3_4
REMARK    4  A    between atoms: N1_3  and  C5_6
REMARK    5  A    between atoms: C3_4  and  C4_5
REMARK    6  A    between atoms: C5_6  and  C6_7
REMARK                            x       y       z     vdW  Elec       q    Type
REMARK                         _______ _______ _______ _____ _____    ______ ____
ROOT
ATOM      1  N1  UNL     1      -4.534  -3.239   2.211  0.00  0.00    +0.000 NA
ENDROOT
BRANCH   1   3
ATOM      2  C1  UNL     1      -2.640  -2.867   3.734  0.00  0.00    +0.000 C 
ATOM      3  C2  UNL     1      -3.584  -3.905   3.140  0.00  0.00    +0.000 C 
ENDBRANCH   1   3
BRANCH   1   4
ATOM      4  C3  UNL     1      -4.246  -3.571   0.797  0.00  0.00    +0.000 C 
ATOM      5  C4  UNL     1      -3.681  -4.987   0.670  0.00  0.00    +0.000 C 
ENDBRANCH   1   4
BRANCH   1   6
ATOM      6  C5  UNL     1      -4.553  -1.770   2.404  0.00  0.00    +0.000 C 
ATOM      7  C6  UNL     1      -5.946  -1.287   2.804  0.00  0.00    +0.000 C 
ENDBRANCH   1   6
TORSDOF 3
ENDMDL
MODEL 3
REMARK VINA RESULT:    -2.926      0.107      3.189
REMARK INTER + INTRA:          -3.596
REMARK INTER:                  -3.435
REMARK INTRA:                  -0.161
REMARK UNBOUND:                -0.157
REMARK  Name = results/0b2d33b1-a8a5-4a58-a8a2-69965f71a080_ligand.pdb
REMARK  6 active torsions:
REMARK  status: ('A' for Active; 'I' for Inactive)
REMARK    1  A    between atoms: C1_1  and  C2_2
REMARK    2  A    between atoms: C2_2  and  N1_3
REMARK    3  A    between atoms: N1_3  and  C3_4
REMARK    4  A    between atoms: N1_3  and  C5_6
REMARK    5  A    between atoms: C3_4  and  C4_5
REMARK    6  A    between atoms: C5_6  and  C6_7
REMARK                            x       y       z     vdW  Elec       q    Type
REMARK                         _______ _______ _______ _____ _____    ______ ____
ROOT
ATOM      1  N1  UNL     1      -4.556  -3.244   2.216  0.00  0.00    +0.000 NA
ENDROOT
BRANCH   1   3
ATOM      2  C1  UNL     1      -6.043  -1.362   2.759  0.00  0.00    +0.000 C 
ATOM      3  C2  UNL     1      -4.608  -1.779   2.464  0.00  0.00    +0.000 C 
ENDBRANCH   1   3
BRANCH   1   4
ATOM      4  C3  UNL     1      -3.606  -3.923   3.126  0.00  0.00    +0.000 C 
ATOM      5  C4  UNL     1      -2.619  -2.926   3.733  0.00  0.00    +0.000 C 
ENDBRANCH   1   4
BRANCH   1   6
ATOM      6  C5  UNL     1      -4.229  -3.551   0.804  0.00  0.00    +0.000 C 
ATOM      7  C6  UNL     1      -3.639  -4.954   0.671  0.00  0.00    +0.000 C 
ENDBRANCH   1   6
TORSDOF 3
ENDMDL
MODEL 4
REMARK VINA RESULT:    -2.917      0.615      2.421
REMARK INTER + INTRA:          -3.585
REMARK INTER:                  -3.427
REMARK INTRA:                  -0.158
REMARK UNBOUND:                -0.157
REMARK  Name = results/0b2d33b1-a8a5-4a58-a8a2-69965f71a080_ligand.pdb
REMARK  6 active torsions:
REMARK  status: ('A' for Active; 'I' for Inactive)
REMARK    1  A    between atoms: C1_1  and  C2_2
REMARK    2  A    between atoms: C2_2  and  N1_3
REMARK    3  A    between atoms: N1_3  and  C3_4
REMARK    4  A    between atoms: N1_3  and  C5_6
REMARK    5  A    between atoms: C3_4  and  C4_5
REMARK    6  A    between atoms: C5_6  and  C6_7
REMARK                            x       y       z     vdW  Elec       q    Type
REMARK                         _______ _______ _______ _____ _____    ______ ____
ROOT
ATOM      1  N1  UNL     1      -4.268  -3.024   1.991  0.00  0.00    +0.000 NA
ENDROOT
BRANCH   1   3
ATOM      2  C1  UNL     1      -3.575  -4.993   0.692  0.00  0.00    +0.000 C 
ATOM      3  C2  UNL     1      -4.293  -3.650   0.643  0.00  0.00    +0.000 C 
ENDBRANCH   1   3
BRANCH   1   4
ATOM      4  C3  UNL     1      -3.452  -3.807   2.947  0.00  0.00    +0.000 C 
ATOM      5  C4  UNL     1      -2.591  -2.890   3.816  0.00  0.00    +0.000 C 
ENDBRANCH   1   4
BRANCH   1   6
ATOM      6  C5  UNL     1      -5.633  -2.816   2.526  0.00  0.00    +0.000 C 
ATOM      7  C6  UNL     1      -5.874  -1.343   2.856  0.00  0.00    +0.000 C 
ENDBRANCH   1   6
TORSDOF 3
ENDMDL
MODEL 5
REMARK VINA RESULT:    -2.908      0.635      2.913
REMARK INTER + INTRA:          -3.575
REMARK INTER:                  -3.416
REMARK INTRA:                  -0.159
REMARK UNBOUND:                -0.157
REMARK  Name = results/0b2d33b1-a8a5-4a58-a8a2-69965f71a080_ligand.pdb
REMARK  6 active torsions:
REMARK  status: ('A' for Active; 'I' for Inactive)
REMARK    1  A    between atoms: C1_1  and  C2_2
REMARK    2  A    between atoms: C2_2  and  N1_3
REMARK    3  A    between atoms: N1_3  and  C3_4
REMARK    4  A    between atoms: N1_3  and  C5_6
REMARK    5  A    between atoms: C3_4  and  C4_5
REMARK    6  A    between atoms: C5_6  and  C6_7
REMARK                            x       y       z     vdW  Elec       q    Type
REMARK                         _______ _______ _______ _____ _____    ______ ____
ROOT
ATOM      1  N1  UNL     1      -4.240  -3.075   2.083  0.00  0.00    +0.000 NA
ENDROOT
BRANCH   1   3
ATOM      2  C1  UNL     1      -5.861  -1.395   2.855  0.00  0.00    +0.000 C 
ATOM      3  C2  UNL     1      -5.665  -2.848   2.438  0.00  0.00    +0.000 C 
ENDBRANCH   1   3
BRANCH   1   4
ATOM      4  C3  UNL     1      -4.102  -3.830   0.816  0.00  0.00    +0.000 C 
ATOM      5  C4  UNL     1      -3.476  -5.203   1.060  0.00  0.00    +0.000 C 
ENDBRANCH   1   4
BRANCH   1   6
ATOM      6  C5  UNL     1      -3.504  -3.756   3.174  0.00  0.00    +0.000 C 
ATOM      7  C6  UNL     1      -2.522  -2.801   3.851  0.00  0.00    +0.000 C 
ENDBRANCH   1   6
TORSDOF 3
ENDMDL
MODEL 6
REMARK VINA RESULT:    -2.750      1.181      2.693
REMARK INTER + INTRA:          -3.390
REMARK INTER:                  -3.228
REMARK INTRA:                  -0.162
REMARK UNBOUND:                -0.157
REMARK  Name = results/0b2d33b1-a8a5-4a58-a8a2-69965f71a080_ligand.pdb
REMARK  6 active torsions:
REMARK  status: ('A' for Active; 'I' for Inactive)
REMARK    1  A    between atoms: C1_1  and  C2_2
REMARK    2  A    between atoms: C2_2  and  N1_3
REMARK    3  A    between atoms: N1_3  and  C3_4
REMARK    4  A    between atoms: N1_3  and  C5_6
REMARK    5  A    between atoms: C3_4  and  C4_5
REMARK    6  A    between atoms: C5_6  and  C6_7
REMARK                            x       y       z     vdW  Elec       q    Type
REMARK                         _______ _______ _______ _____ _____    ______ ____
ROOT
ATOM      1  N1  UNL     1      -3.755  -3.619   1.643  0.00  0.00    +0.000 NA
ENDROOT
BRANCH   1   3
ATOM      2  C1  UNL     1      -2.634  -2.894   3.707  0.00  0.00    +0.000 C 
ATOM      3  C2  UNL     1      -3.707  -3.801   3.118  0.00  0.00    +0.000 C 
ENDBRANCH   1   3
BRANCH   1   4
ATOM      4  C3  UNL     1      -5.035  -3.015   1.205  0.00  0.00    +0.000 C 
ATOM      5  C4  UNL     1      -4.876  -1.516   0.954  0.00  0.00    +0.000 C 
ENDBRANCH   1   4
BRANCH   1   6
ATOM      6  C5  UNL     1      -3.511  -4.892   0.925  0.00  0.00    +0.000 C 
ATOM      7  C6  UNL     1      -3.896  -6.092   1.789  0.00  0.00    +0.000 C 
ENDBRANCH   1   6
TORSDOF 3
ENDMDL
MODEL 7
REMARK VINA RESULT:    -2.748      1.309      2.349
REMARK INTER + INTRA:          -3.387
REMARK INTER:                  -3.198
REMARK INTRA:                  -0.189
REMARK UNBOUND:                -0.157
REMARK  Name = results/0b2d33b1-a8a5-4a58-a8a2-69965f71a080_ligand.pdb
REMARK  6 active torsions:
REMARK  status: ('A' for Active; 'I' for Inactive)
REMARK    1  A    between atoms: C1_1  and  C2_2
REMARK    2  A    between atoms: C2_2  and  N1_3
REMARK    3  A    between atoms: N1_3  and  C3_4
REMARK    4  A    between atoms: N1_3  and  C5_6
REMARK    5  A    between atoms: C3_4  and  C4_5
REMARK    6  A    between atoms: C5_6  and  C6_7
REMARK                            x       y       z     vdW  Elec       q    Type
REMARK                         _______ _______ _______ _____ _____    ______ ____
ROOT
ATOM      1  N1  UNL     1      -4.603  -3.161   2.251  0.00  0.00    +0.000 NA
ENDROOT
BRANCH   1   3
ATOM      2  C1  UNL     1      -2.661  -2.998   3.751  0.00  0.00    +0.000 C 
ATOM      3  C2  UNL     1      -3.294  -3.772   2.601  0.00  0.00    +0.000 C 
ENDBRANCH   1   3
BRANCH   1   4
ATOM      4  C3  UNL     1      -4.663  -1.733   2.637  0.00  0.00    +0.000 C 
ATOM      5  C4  UNL     1      -6.112  -1.257   2.756  0.00  0.00    +0.000 C 
ENDBRANCH   1   4
BRANCH   1   6
ATOM      6  C5  UNL     1      -5.735  -3.907   2.847  0.00  0.00    +0.000 C 
ATOM      7  C6  UNL     1      -5.626  -5.401   2.546  0.00  0.00    +0.000 C 
ENDBRANCH   1   6
TORSDOF 3
ENDMDL
MODEL 8
REMARK VINA RESULT:    -2.532      1.999      3.873
REMARK INTER + INTRA:          -3.133
REMARK INTER:                  -2.978
REMARK INTRA:                  -0.155
REMARK UNBOUND:                -0.157
REMARK  Name = results/0b2d33b1-a8a5-4a58-a8a2-69965f71a080_ligand.pdb
REMARK  6 active torsions:
REMARK  status: ('A' for Active; 'I' for Inactive)
REMARK    1  A    between atoms: C1_1  and  C2_2
REMARK    2  A    between atoms: C2_2  and  N1_3
REMARK    3  A    between atoms: N1_3  and  C3_4
REMARK    4  A    between atoms: N1_3  and  C5_6
REMARK    5  A    between atoms: C3_4  and  C4_5
REMARK    6  A    between atoms: C5_6  and  C6_7
REMARK                            x       y       z     vdW  Elec       q    Type
REMARK                         _______ _______ _______ _____ _____    ______ ____
ROOT
ATOM      1  N1  UNL     1      -4.259  -5.290   2.335  0.00  0.00    +0.000 NA
ENDROOT
BRANCH   1   3
ATOM      2  C1  UNL     1      -3.055  -3.430   3.401  0.00  0.00    +0.000 C 
ATOM      3  C2  UNL     1      -3.459  -4.064   2.076  0.00  0.00    +0.000 C 
ENDBRANCH   1   3
BRANCH   1   4
ATOM      4  C3  UNL     1      -3.674  -6.478   1.673  0.00  0.00    +0.000 C 
ATOM      5  C4  UNL     1      -2.892  -6.081   0.421  0.00  0.00    +0.000 C 
ENDBRANCH   1   4
BRANCH   1   6
ATOM      6  C5  UNL     1      -5.674  -5.118   1.932  0.00  0.00    +0.000 C 
ATOM      7  C6  UNL     1      -6.542  -4.732   3.130  0.00  0.00    +0.000 C 
ENDBRANCH   1   6
TORSDOF 3
ENDMDL
MODEL 9
REMARK VINA RESULT:    -2.509     13.688     14.761
REMARK INTER + INTRA:          -3.106
REMARK INTER:                  -2.975
REMARK INTRA:                  -0.131
REMARK UNBOUND:                -0.157
REMARK  Name = results/0b2d33b1-a8a5-4a58-a8a2-69965f71a080_ligand.pdb
REMARK  6 active torsions:
REMARK  status: ('A' for Active; 'I' for Inactive)
REMARK    1  A    between atoms: C1_1  and  C2_2
REMARK    2  A    between atoms: C2_2  and  N1_3
REMARK    3  A    between atoms: N1_3  and  C3_4
REMARK    4  A    between atoms: N1_3  and  C5_6
REMARK    5  A    between atoms: C3_4  and  C4_5
REMARK    6  A    between atoms: C5_6  and  C6_7
REMARK                            x       y       z     vdW  Elec       q    Type
REMARK                         _______ _______ _______ _____ _____    ______ ____
ROOT
ATOM      1  N1  UNL     1       9.336  -4.779  -1.957  0.00  0.00    +0.000 NA
ENDROOT
BRANCH   1   3
ATOM      2  C1  UNL     1      10.767  -3.154  -3.122  0.00  0.00    +0.000 C 
ATOM      3  C2  UNL     1      10.023  -3.466  -1.830  0.00  0.00    +0.000 C 
ENDBRANCH   1   3
BRANCH   1   4
ATOM      4  C3  UNL     1       9.489  -5.601  -0.735  0.00  0.00    +0.000 C 
ATOM      5  C4  UNL     1       8.128  -6.008  -0.172  0.00  0.00    +0.000 C 
ENDBRANCH   1   4
BRANCH   1   6
ATOM      6  C5  UNL     1       9.800  -5.528  -3.147  0.00  0.00    +0.000 C 
ATOM      7  C6  UNL     1       8.666  -6.359  -3.748  0.00  0.00    +0.000 C 
ENDBRANCH   1   6
TORSDOF 3
ENDMDL
