MODEL 1
REMARK VINA RESULT:    -2.939      0.000      0.000
REMARK INTER + INTRA:          -3.611
REMARK INTER:                  -3.454
REMARK INTRA:                  -0.157
REMARK UNBOUND:                -0.157
REMARK  Name = C:\Users\Bellamkonda Sowmya\OneDrive\Documents\backend[1]\backend\results\ligand_1764363994234.pdb
REMARK  6 active torsions:
REMARK  status: ('A' for Active; 'I' for Inactive)
REMARK    1  A    between atoms: C_1  and  C_2
REMARK    2  A    between atoms: C_2  and  N_3
REMARK    3  A    between atoms: N_3  and  C_4
REMARK    4  A    between atoms: N_3  and  C_6
REMARK    5  A    between atoms: C_4  and  C_5
REMARK    6  A    between atoms: C_6  and  C_7
REMARK                            x       y       z     vdW  Elec       q    Type
REMARK                         _______ _______ _______ _____ _____    ______ ____
ROOT
ATOM      1  N   UNL     1      -4.520  -3.237   2.105  0.00  0.00    +0.000 NA
ENDROOT
BRANCH   1   3
ATOM      2  C   UNL     1      -3.521  -5.018   0.666  0.00  0.00    +0.000 C 
ATOM      3  C   UNL     1      -4.191  -3.647   0.733  0.00  0.00    +0.000 C 
ENDBRANCH   1   3
BRANCH   1   4
ATOM      4  C   UNL     1      -3.650  -3.833   3.134  0.00  0.00    +0.000 C 
ATOM      5  C   UNL     1      -2.618  -2.914   3.782  0.00  0.00    +0.000 C 
ENDBRANCH   1   4
BRANCH   1   6
ATOM      6  C   UNL     1      -4.611  -1.777   2.259  0.00  0.00    +0.000 C 
ATOM      7  C   UNL     1      -5.942  -1.324   2.856  0.00  0.00    +0.000 C 
ENDBRANCH   1   6
TORSDOF 3
ENDMDL
MODEL 2
REMARK VINA RESULT:    -2.935      0.208      3.145
REMARK INTER + INTRA:          -3.607
REMARK INTER:                  -3.455
REMARK INTRA:                  -0.152
REMARK UNBOUND:                -0.157
REMARK  Name = C:\Users\Bellamkonda Sowmya\OneDrive\Documents\backend[1]\backend\results\ligand_1764363994234.pdb
REMARK  6 active torsions:
REMARK  status: ('A' for Active; 'I' for Inactive)
REMARK    1  A    between atoms: C_1  and  C_2
REMARK    2  A    between atoms: C_2  and  N_3
REMARK    3  A    between atoms: N_3  and  C_4
REMARK    4  A    between atoms: N_3  and  C_6
REMARK    5  A    between atoms: C_4  and  C_5
REMARK    6  A    between atoms: C_6  and  C_7
REMARK                            x       y       z     vdW  Elec       q    Type
REMARK                         _______ _______ _______ _____ _____    ______ ____
ROOT
ATOM      1  N   UNL     1      -4.506  -3.276   2.195  0.00  0.00    +0.000 NA
ENDROOT
BRANCH   1   3
ATOM      2  C   UNL     1      -5.911  -1.316   2.846  0.00  0.00    +0.000 C 
ATOM      3  C   UNL     1      -4.617  -1.810   2.205  0.00  0.00    +0.000 C 
ENDBRANCH   1   3
BRANCH   1   4
ATOM      4  C   UNL     1      -4.027  -3.832   0.918  0.00  0.00    +0.000 C 
ATOM      5  C   UNL     1      -3.422  -5.233   0.959  0.00  0.00    +0.000 C 
ENDBRANCH   1   4
BRANCH   1   6
ATOM      6  C   UNL     1      -3.735  -3.800   3.332  0.00  0.00    +0.000 C 
ATOM      7  C   UNL     1      -2.614  -2.861   3.773  0.00  0.00    +0.000 C 
ENDBRANCH   1   6
TORSDOF 3
ENDMDL
MODEL 3
REMARK VINA RESULT:    -2.934      0.226      3.244
REMARK INTER + INTRA:          -3.606
REMARK INTER:                  -3.457
REMARK INTRA:                  -0.149
REMARK UNBOUND:                -0.157
REMARK  Name = C:\Users\Bellamkonda Sowmya\OneDrive\Documents\backend[1]\backend\results\ligand_1764363994234.pdb
REMARK  6 active torsions:
REMARK  status: ('A' for Active; 'I' for Inactive)
REMARK    1  A    between atoms: C_1  and  C_2
REMARK    2  A    between atoms: C_2  and  N_3
REMARK    3  A    between atoms: N_3  and  C_4
REMARK    4  A    between atoms: N_3  and  C_6
REMARK    5  A    between atoms: C_4  and  C_5
REMARK    6  A    between atoms: C_6  and  C_7
REMARK                            x       y       z     vdW  Elec       q    Type
REMARK                         _______ _______ _______ _____ _____    ______ ____
ROOT
ATOM      1  N   UNL     1      -4.436  -3.376   2.189  0.00  0.00    +0.000 NA
ENDROOT
BRANCH   1   3
ATOM      2  C   UNL     1      -2.582  -2.893   3.793  0.00  0.00    +0.000 C 
ATOM      3  C   UNL     1      -3.623  -3.895   3.298  0.00  0.00    +0.000 C 
ENDBRANCH   1   3
BRANCH   1   4
ATOM      4  C   UNL     1      -4.590  -1.911   2.193  0.00  0.00    +0.000 C 
ATOM      5  C   UNL     1      -5.840  -1.351   2.868  0.00  0.00    +0.000 C 
ENDBRANCH   1   4
BRANCH   1   6
ATOM      6  C   UNL     1      -3.990  -3.864   0.875  0.00  0.00    +0.000 C 
ATOM      7  C   UNL     1      -3.441  -5.289   0.925  0.00  0.00    +0.000 C 
ENDBRANCH   1   6
TORSDOF 3
ENDMDL
MODEL 4
REMARK VINA RESULT:    -2.876      0.563      2.527
REMARK INTER + INTRA:          -3.538
REMARK INTER:                  -3.385
REMARK INTRA:                  -0.153
REMARK UNBOUND:                -0.157
REMARK  Name = C:\Users\Bellamkonda Sowmya\OneDrive\Documents\backend[1]\backend\results\ligand_1764363994234.pdb
REMARK  6 active torsions:
REMARK  status: ('A' for Active; 'I' for Inactive)
REMARK    1  A    between atoms: C_1  and  C_2
REMARK    2  A    between atoms: C_2  and  N_3
REMARK    3  A    between atoms: N_3  and  C_4
REMARK    4  A    between atoms: N_3  and  C_6
REMARK    5  A    between atoms: C_4  and  C_5
REMARK    6  A    between atoms: C_6  and  C_7
REMARK                            x       y       z     vdW  Elec       q    Type
REMARK                         _______ _______ _______ _____ _____    ______ ____
ROOT
ATOM      1  N   UNL     1      -4.295  -3.068   2.032  0.00  0.00    +0.000 NA
ENDROOT
BRANCH   1   3
ATOM      2  C   UNL     1      -2.568  -2.874   3.827  0.00  0.00    +0.000 C 
ATOM      3  C   UNL     1      -3.608  -3.754   3.136  0.00  0.00    +0.000 C 
ENDBRANCH   1   3
BRANCH   1   4
ATOM      4  C   UNL     1      -4.188  -3.761   0.737  0.00  0.00    +0.000 C 
ATOM      5  C   UNL     1      -3.479  -5.113   0.733  0.00  0.00    +0.000 C 
ENDBRANCH   1   4
BRANCH   1   6
ATOM      6  C   UNL     1      -5.691  -2.732   2.348  0.00  0.00    +0.000 C 
ATOM      7  C   UNL     1      -5.855  -1.311   2.884  0.00  0.00    +0.000 C 
ENDBRANCH   1   6
TORSDOF 3
ENDMDL
MODEL 5
REMARK VINA RESULT:    -2.863      0.606      2.978
REMARK INTER + INTRA:          -3.522
REMARK INTER:                  -3.370
REMARK INTRA:                  -0.152
REMARK UNBOUND:                -0.157
REMARK  Name = C:\Users\Bellamkonda Sowmya\OneDrive\Documents\backend[1]\backend\results\ligand_1764363994234.pdb
REMARK  6 active torsions:
REMARK  status: ('A' for Active; 'I' for Inactive)
REMARK    1  A    between atoms: C_1  and  C_2
REMARK    2  A    between atoms: C_2  and  N_3
REMARK    3  A    between atoms: N_3  and  C_4
REMARK    4  A    between atoms: N_3  and  C_6
REMARK    5  A    between atoms: C_4  and  C_5
REMARK    6  A    between atoms: C_6  and  C_7
REMARK                            x       y       z     vdW  Elec       q    Type
REMARK                         _______ _______ _______ _____ _____    ______ ____
ROOT
ATOM      1  N   UNL     1      -4.360  -3.161   2.034  0.00  0.00    +0.000 NA
ENDROOT
BRANCH   1   3
ATOM      2  C   UNL     1      -5.814  -1.317   2.889  0.00  0.00    +0.000 C 
ATOM      3  C   UNL     1      -5.721  -2.772   2.434  0.00  0.00    +0.000 C 
ENDBRANCH   1   3
BRANCH   1   4
ATOM      4  C   UNL     1      -3.571  -3.778   3.114  0.00  0.00    +0.000 C 
ATOM      5  C   UNL     1      -2.562  -2.884   3.828  0.00  0.00    +0.000 C 
ENDBRANCH   1   4
BRANCH   1   6
ATOM      6  C   UNL     1      -4.336  -3.983   0.815  0.00  0.00    +0.000 C 
ATOM      7  C   UNL     1      -3.395  -5.182   0.924  0.00  0.00    +0.000 C 
ENDBRANCH   1   6
TORSDOF 3
ENDMDL
MODEL 6
REMARK VINA RESULT:    -2.850      0.602      2.398
REMARK INTER + INTRA:          -3.507
REMARK INTER:                  -3.372
REMARK INTRA:                  -0.135
REMARK UNBOUND:                -0.157
REMARK  Name = C:\Users\Bellamkonda Sowmya\OneDrive\Documents\backend[1]\backend\results\ligand_1764363994234.pdb
REMARK  6 active torsions:
REMARK  status: ('A' for Active; 'I' for Inactive)
REMARK    1  A    between atoms: C_1  and  C_2
REMARK    2  A    between atoms: C_2  and  N_3
REMARK    3  A    between atoms: N_3  and  C_4
REMARK    4  A    between atoms: N_3  and  C_6
REMARK    5  A    between atoms: C_4  and  C_5
REMARK    6  A    between atoms: C_6  and  C_7
REMARK                            x       y       z     vdW  Elec       q    Type
REMARK                         _______ _______ _______ _____ _____    ______ ____
ROOT
ATOM      1  N   UNL     1      -4.162  -3.127   1.895  0.00  0.00    +0.000 NA
ENDROOT
BRANCH   1   3
ATOM      2  C   UNL     1      -3.487  -5.427   1.190  0.00  0.00    +0.000 C 
ATOM      3  C   UNL     1      -3.961  -4.040   0.761  0.00  0.00    +0.000 C 
ENDBRANCH   1   3
BRANCH   1   4
ATOM      4  C   UNL     1      -5.539  -2.617   2.018  0.00  0.00    +0.000 C 
ATOM      5  C   UNL     1      -5.737  -1.364   2.865  0.00  0.00    +0.000 C 
ENDBRANCH   1   4
BRANCH   1   6
ATOM      6  C   UNL     1      -3.679  -3.681   3.168  0.00  0.00    +0.000 C 
ATOM      7  C   UNL     1      -2.536  -2.870   3.776  0.00  0.00    +0.000 C 
ENDBRANCH   1   6
TORSDOF 3
ENDMDL
MODEL 7
REMARK VINA RESULT:    -2.595     13.645     14.762
REMARK INTER + INTRA:          -3.207
REMARK INTER:                  -3.064
REMARK INTRA:                  -0.142
REMARK UNBOUND:                -0.157
REMARK  Name = C:\Users\Bellamkonda Sowmya\OneDrive\Documents\backend[1]\backend\results\ligand_1764363994234.pdb
REMARK  6 active torsions:
REMARK  status: ('A' for Active; 'I' for Inactive)
REMARK    1  A    between atoms: C_1  and  C_2
REMARK    2  A    between atoms: C_2  and  N_3
REMARK    3  A    between atoms: N_3  and  C_4
REMARK    4  A    between atoms: N_3  and  C_6
REMARK    5  A    between atoms: C_4  and  C_5
REMARK    6  A    between atoms: C_6  and  C_7
REMARK                            x       y       z     vdW  Elec       q    Type
REMARK                         _______ _______ _______ _____ _____    ______ ____
ROOT
ATOM      1  N   UNL     1       9.331  -5.065  -2.501  0.00  0.00    +0.000 NA
ENDROOT
BRANCH   1   3
ATOM      2  C   UNL     1      10.832  -3.291  -3.421  0.00  0.00    +0.000 C 
ATOM      3  C   UNL     1      10.691  -4.739  -2.956  0.00  0.00    +0.000 C 
ENDBRANCH   1   3
BRANCH   1   4
ATOM      4  C   UNL     1       8.894  -6.428  -2.849  0.00  0.00    +0.000 C 
ATOM      5  C   UNL     1       8.502  -6.677  -4.302  0.00  0.00    +0.000 C 
ENDBRANCH   1   4
BRANCH   1   6
ATOM      6  C   UNL     1       9.123  -4.782  -1.073  0.00  0.00    +0.000 C 
ATOM      7  C   UNL     1       8.347  -5.884  -0.355  0.00  0.00    +0.000 C 
ENDBRANCH   1   6
TORSDOF 3
ENDMDL
MODEL 8
REMARK VINA RESULT:    -2.594      1.645      3.046
REMARK INTER + INTRA:          -3.207
REMARK INTER:                  -3.021
REMARK INTRA:                  -0.186
REMARK UNBOUND:                -0.157
REMARK  Name = C:\Users\Bellamkonda Sowmya\OneDrive\Documents\backend[1]\backend\results\ligand_1764363994234.pdb
REMARK  6 active torsions:
REMARK  status: ('A' for Active; 'I' for Inactive)
REMARK    1  A    between atoms: C_1  and  C_2
REMARK    2  A    between atoms: C_2  and  N_3
REMARK    3  A    between atoms: N_3  and  C_4
REMARK    4  A    between atoms: N_3  and  C_6
REMARK    5  A    between atoms: C_4  and  C_5
REMARK    6  A    between atoms: C_6  and  C_7
REMARK                            x       y       z     vdW  Elec       q    Type
REMARK                         _______ _______ _______ _____ _____    ______ ____
ROOT
ATOM      1  N   UNL     1      -4.660  -3.983   2.112  0.00  0.00    +0.000 NA
ENDROOT
BRANCH   1   3
ATOM      2  C   UNL     1      -2.848  -3.125   3.603  0.00  0.00    +0.000 C 
ATOM      3  C   UNL     1      -4.132  -2.817   2.835  0.00  0.00    +0.000 C 
ENDBRANCH   1   3
BRANCH   1   4
ATOM      4  C   UNL     1      -3.697  -4.598   1.182  0.00  0.00    +0.000 C 
ATOM      5  C   UNL     1      -3.538  -6.114   1.256  0.00  0.00    +0.000 C 
ENDBRANCH   1   4
BRANCH   1   6
ATOM      6  C   UNL     1      -5.260  -4.986   3.004  0.00  0.00    +0.000 C 
ATOM      7  C   UNL     1      -6.782  -4.887   3.074  0.00  0.00    +0.000 C 
ENDBRANCH   1   6
TORSDOF 3
ENDMDL
MODEL 9
REMARK VINA RESULT:    -2.397     13.515     14.485
REMARK INTER + INTRA:          -2.975
REMARK INTER:                  -2.811
REMARK INTRA:                  -0.164
REMARK UNBOUND:                -0.157
REMARK  Name = C:\Users\Bellamkonda Sowmya\OneDrive\Documents\backend[1]\backend\results\ligand_1764363994234.pdb
REMARK  6 active torsions:
REMARK  status: ('A' for Active; 'I' for Inactive)
REMARK    1  A    between atoms: C_1  and  C_2
REMARK    2  A    between atoms: C_2  and  N_3
REMARK    3  A    between atoms: N_3  and  C_4
REMARK    4  A    between atoms: N_3  and  C_6
REMARK    5  A    between atoms: C_4  and  C_5
REMARK    6  A    between atoms: C_6  and  C_7
REMARK                            x       y       z     vdW  Elec       q    Type
REMARK                         _______ _______ _______ _____ _____    ______ ____
ROOT
ATOM      1  N   UNL     1       9.791  -5.312  -2.065  0.00  0.00    +0.000 NA
ENDROOT
BRANCH   1   3
ATOM      2  C   UNL     1       8.611  -6.485  -3.929  0.00  0.00    +0.000 C 
ATOM      3  C   UNL     1       9.823  -6.445  -3.000  0.00  0.00    +0.000 C 
ENDBRANCH   1   3
BRANCH   1   4
ATOM      4  C   UNL     1      10.290  -4.049  -2.636  0.00  0.00    +0.000 C 
ATOM      5  C   UNL     1      10.251  -2.820  -1.732  0.00  0.00    +0.000 C 
ENDBRANCH   1   4
BRANCH   1   6
ATOM      6  C   UNL     1       8.477  -5.132  -1.429  0.00  0.00    +0.000 C 
ATOM      7  C   UNL     1       8.286  -6.014  -0.197  0.00  0.00    +0.000 C 
ENDBRANCH   1   6
TORSDOF 3
ENDMDL
