MODEL 1
REMARK VINA RESULT:    -6.456      0.000      0.000
REMARK INTER + INTRA:          -8.628
REMARK INTER:                  -7.966
REMARK INTRA:                  -0.662
REMARK UNBOUND:                -0.662
REMARK  Name = C:\Users\Bellamkonda Sowmya\OneDrive\Desktop\2nd yr notes\ps1\authml\authml\backend\results\ligand_1764933823886.pdb
REMARK  4 active torsions:
REMARK  status: ('A' for Active; 'I' for Inactive)
REMARK    1  A    between atoms: S_2  and  N_4
REMARK    2  A    between atoms: S_2  and  C_21
REMARK    3  A    between atoms: N_4  and  C_5
REMARK    4  A    between atoms: C_9  and  C_10
REMARK                            x       y       z     vdW  Elec       q    Type
REMARK                         _______ _______ _______ _____ _____    ______ ____
ROOT
ATOM      1  C   UNL     1      -2.879  -6.786  -0.597  0.00  0.00    +0.000 A 
ATOM      2  C   UNL     1      -3.482  -8.027  -0.863  0.00  0.00    +0.000 A 
ATOM      3  C   UNL     1      -3.631  -8.484  -2.164  0.00  0.00    +0.000 A 
ATOM      4  C   UNL     1      -3.196  -7.709  -3.216  0.00  0.00    +0.000 A 
ATOM      5  C   UNL     1      -2.586  -6.542  -2.956  0.00  0.00    +0.000 A 
ATOM      6  C   UNL     1      -2.533  -6.401  -1.822  0.00  0.00    +0.000 A 
ENDROOT
BRANCH   5   7
ATOM      7  C   UNL     1      -2.056  -5.567  -3.995  0.00  0.00    +0.000 A 
ATOM      8  C   UNL     1      -4.962  -1.096  -4.468  0.00  0.00    +0.000 A 
ATOM      9  N   UNL     1      -4.188  -2.239  -4.282  0.00  0.00    +0.000 NA
ATOM     10  C   UNL     1      -3.126  -2.509  -5.143  0.00  0.00    +0.000 A 
ATOM     11  C   UNL     1      -2.664  -1.775  -6.249  0.00  0.00    +0.000 A 
ATOM     12  C   UNL     1      -1.538  -2.177  -6.953  0.00  0.00    +0.000 A 
ATOM     13  C   UNL     1      -0.851  -3.304  -6.559  0.00  0.00    +0.000 A 
ATOM     14  C   UNL     1      -1.318  -4.023  -5.525  0.00  0.00    +0.000 A 
ATOM     15  C   UNL     1      -2.275  -3.532  -5.140  0.00  0.00    +0.000 A 
ATOM     16  N   UNL     1      -2.734  -4.375  -4.240  0.00  0.00    +0.000 NA
ENDBRANCH   5   7
BRANCH   1  17
ATOM     17  N   UNL     1      -2.752  -5.995   0.636  0.00  0.00    +0.000 N 
ATOM     18  H   UNL     1      -1.828  -5.788   1.016  0.00  0.00    +0.000 HD
BRANCH  17  20
ATOM     19  O   UNL     1      -5.253  -5.028   0.415  0.00  0.00    +0.000 OA
ATOM     20  S   UNL     1      -4.193  -5.405   1.455  0.00  0.00    +0.000 S 
ATOM     21  O   UNL     1      -4.744  -6.500   2.371  0.00  0.00    +0.000 OA
BRANCH  20  22
ATOM     22  C   UNL     1      -3.773  -3.947   2.442  0.00  0.00    +0.000 A 
ATOM     23  C   UNL     1      -3.997  -2.495   3.001  0.00  0.00    +0.000 A 
ATOM     24  C   UNL     1      -2.677  -2.899   3.686  0.00  0.00    +0.000 A 
ATOM     25  C   UNL     1      -2.677  -2.899   3.686  0.00  0.00    +0.000 A 
ATOM     26  S   UNL     1      -2.677  -2.899   3.686  0.00  0.00    +0.000 S 
ENDBRANCH  20  22
ENDBRANCH  17  20
ENDBRANCH   1  17
TORSDOF 4
ENDMDL
