MODEL 1
REMARK VINA RESULT:    -2.937      0.000      0.000
REMARK INTER + INTRA:          -3.608
REMARK INTER:                  -3.452
REMARK INTRA:                  -0.156
REMARK UNBOUND:                -0.156
REMARK  Name = C:\Users\Bellamkonda Sowmya\OneDrive\Desktop\LIGBIND AI\authml\authml\backend\results\ligand_1765183457366.pdb
REMARK  6 active torsions:
REMARK  status: ('A' for Active; 'I' for Inactive)
REMARK    1  A    between atoms: C_1  and  C_2
REMARK    2  A    between atoms: C_2  and  N_3
REMARK    3  A    between atoms: N_3  and  C_4
REMARK    4  A    between atoms: N_3  and  C_6
REMARK    5  A    between atoms: C_4  and  C_5
REMARK    6  A    between atoms: C_6  and  C_7
REMARK                            x       y       z     vdW  Elec       q    Type
REMARK                         _______ _______ _______ _____ _____    ______ ____
ROOT
ATOM      1  N   UNL     1      -4.520  -3.218   2.160  0.00  0.00    +0.000 NA
ENDROOT
BRANCH   1   3
ATOM      2  C   UNL     1      -3.540  -5.093   0.823  0.00  0.00    +0.000 C 
ATOM      3  C   UNL     1      -4.134  -3.688   0.820  0.00  0.00    +0.000 C 
ENDBRANCH   1   3
BRANCH   1   4
ATOM      4  C   UNL     1      -3.701  -3.778   3.251  0.00  0.00    +0.000 C 
ATOM      5  C   UNL     1      -2.595  -2.883   3.805  0.00  0.00    +0.000 C 
ENDBRANCH   1   4
BRANCH   1   6
ATOM      6  C   UNL     1      -4.596  -1.750   2.247  0.00  0.00    +0.000 C 
ATOM      7  C   UNL     1      -5.880  -1.258   2.909  0.00  0.00    +0.000 C 
ENDBRANCH   1   6
TORSDOF 3
ENDMDL
