MODEL 1
REMARK VINA RESULT:    -2.940      0.000      0.000
REMARK INTER + INTRA:          -3.609
REMARK INTER:                  -3.456
REMARK INTRA:                  -0.153
REMARK UNBOUND:                -0.153
REMARK  Name = C:\DDRIVE\PROJECT\authml\backend\results\ligand_1764476021743.pdb
REMARK  6 active torsions:
REMARK  status: ('A' for Active; 'I' for Inactive)
REMARK    1  A    between atoms: C_1  and  C_2
REMARK    2  A    between atoms: C_2  and  N_3
REMARK    3  A    between atoms: N_3  and  C_4
REMARK    4  A    between atoms: N_3  and  C_6
REMARK    5  A    between atoms: C_4  and  C_5
REMARK    6  A    between atoms: C_6  and  C_7
REMARK                            x       y       z     vdW  Elec       q    Type
REMARK                         _______ _______ _______ _____ _____    ______ ____
ROOT
ATOM      1  N   UNL     1      -4.526  -3.250   2.158  0.00  0.00    +0.000 NA
ENDROOT
BRANCH   1   3
ATOM      2  C   UNL     1      -5.899  -1.285   2.874  0.00  0.00    +0.000 C 
ATOM      3  C   UNL     1      -4.602  -1.784   2.244  0.00  0.00    +0.000 C 
ENDBRANCH   1   3
BRANCH   1   4
ATOM      4  C   UNL     1      -4.086  -3.751   0.843  0.00  0.00    +0.000 C 
ATOM      5  C   UNL     1      -3.468  -5.147   0.812  0.00  0.00    +0.000 C 
ENDBRANCH   1   4
BRANCH   1   6
ATOM      6  C   UNL     1      -3.732  -3.840   3.248  0.00  0.00    +0.000 C 
ATOM      7  C   UNL     1      -2.618  -2.918   3.740  0.00  0.00    +0.000 C 
ENDBRANCH   1   6
TORSDOF 3
ENDMDL
MODEL 2
REMARK VINA RESULT:    -2.929      0.154      3.159
REMARK INTER + INTRA:          -3.596
REMARK INTER:                  -3.448
REMARK INTRA:                  -0.148
REMARK UNBOUND:                -0.153
REMARK  Name = C:\DDRIVE\PROJECT\authml\backend\results\ligand_1764476021743.pdb
REMARK  6 active torsions:
REMARK  status: ('A' for Active; 'I' for Inactive)
REMARK    1  A    between atoms: C_1  and  C_2
REMARK    2  A    between atoms: C_2  and  N_3
REMARK    3  A    between atoms: N_3  and  C_4
REMARK    4  A    between atoms: N_3  and  C_6
REMARK    5  A    between atoms: C_4  and  C_5
REMARK    6  A    between atoms: C_6  and  C_7
REMARK                            x       y       z     vdW  Elec       q    Type
REMARK                         _______ _______ _______ _____ _____    ______ ____
ROOT
ATOM      1  N   UNL     1      -4.496  -3.369   2.154  0.00  0.00    +0.000 NA
ENDROOT
BRANCH   1   3
ATOM      2  C   UNL     1      -2.611  -2.901   3.733  0.00  0.00    +0.000 C 
ATOM      3  C   UNL     1      -3.743  -3.840   3.327  0.00  0.00    +0.000 C 
ENDBRANCH   1   3
BRANCH   1   4
ATOM      4  C   UNL     1      -4.682  -1.908   2.110  0.00  0.00    +0.000 C 
ATOM      5  C   UNL     1      -5.886  -1.346   2.862  0.00  0.00    +0.000 C 
ENDBRANCH   1   4
BRANCH   1   6
ATOM      6  C   UNL     1      -3.944  -3.878   0.888  0.00  0.00    +0.000 C 
ATOM      7  C   UNL     1      -3.462  -5.324   0.986  0.00  0.00    +0.000 C 
ENDBRANCH   1   6
TORSDOF 3
ENDMDL
MODEL 3
REMARK VINA RESULT:    -2.922      0.213      3.158
REMARK INTER + INTRA:          -3.588
REMARK INTER:                  -3.432
REMARK INTRA:                  -0.156
REMARK UNBOUND:                -0.153
REMARK  Name = C:\DDRIVE\PROJECT\authml\backend\results\ligand_1764476021743.pdb
REMARK  6 active torsions:
REMARK  status: ('A' for Active; 'I' for Inactive)
REMARK    1  A    between atoms: C_1  and  C_2
REMARK    2  A    between atoms: C_2  and  N_3
REMARK    3  A    between atoms: N_3  and  C_4
REMARK    4  A    between atoms: N_3  and  C_6
REMARK    5  A    between atoms: C_4  and  C_5
REMARK    6  A    between atoms: C_6  and  C_7
REMARK                            x       y       z     vdW  Elec       q    Type
REMARK                         _______ _______ _______ _____ _____    ______ ____
ROOT
ATOM      1  N   UNL     1      -4.595  -3.158   2.170  0.00  0.00    +0.000 NA
ENDROOT
BRANCH   1   3
ATOM      2  C   UNL     1      -3.587  -4.856   0.633  0.00  0.00    +0.000 C 
ATOM      3  C   UNL     1      -4.263  -3.496   0.778  0.00  0.00    +0.000 C 
ENDBRANCH   1   3
BRANCH   1   4
ATOM      4  C   UNL     1      -3.721  -3.803   3.167  0.00  0.00    +0.000 C 
ATOM      5  C   UNL     1      -2.628  -2.935   3.785  0.00  0.00    +0.000 C 
ENDBRANCH   1   4
BRANCH   1   6
ATOM      6  C   UNL     1      -4.683  -1.707   2.394  0.00  0.00    +0.000 C 
ATOM      7  C   UNL     1      -6.060  -1.260   2.880  0.00  0.00    +0.000 C 
ENDBRANCH   1   6
TORSDOF 3
ENDMDL
MODEL 4
REMARK VINA RESULT:    -2.850      0.623      2.497
REMARK INTER + INTRA:          -3.503
REMARK INTER:                  -3.345
REMARK INTRA:                  -0.158
REMARK UNBOUND:                -0.153
REMARK  Name = C:\DDRIVE\PROJECT\authml\backend\results\ligand_1764476021743.pdb
REMARK  6 active torsions:
REMARK  status: ('A' for Active; 'I' for Inactive)
REMARK    1  A    between atoms: C_1  and  C_2
REMARK    2  A    between atoms: C_2  and  N_3
REMARK    3  A    between atoms: N_3  and  C_4
REMARK    4  A    between atoms: N_3  and  C_6
REMARK    5  A    between atoms: C_4  and  C_5
REMARK    6  A    between atoms: C_6  and  C_7
REMARK                            x       y       z     vdW  Elec       q    Type
REMARK                         _______ _______ _______ _____ _____    ______ ____
ROOT
ATOM      1  N   UNL     1      -4.200  -3.097   2.091  0.00  0.00    +0.000 NA
ENDROOT
BRANCH   1   3
ATOM      2  C   UNL     1      -5.907  -1.401   2.777  0.00  0.00    +0.000 C 
ATOM      3  C   UNL     1      -5.623  -2.842   2.365  0.00  0.00    +0.000 C 
ENDBRANCH   1   3
BRANCH   1   4
ATOM      4  C   UNL     1      -3.461  -3.656   3.237  0.00  0.00    +0.000 C 
ATOM      5  C   UNL     1      -2.447  -2.738   3.914  0.00  0.00    +0.000 C 
ENDBRANCH   1   4
BRANCH   1   6
ATOM      6  C   UNL     1      -3.995  -3.901   0.876  0.00  0.00    +0.000 C 
ATOM      7  C   UNL     1      -3.466  -5.303   1.171  0.00  0.00    +0.000 C 
ENDBRANCH   1   6
TORSDOF 3
ENDMDL
MODEL 5
REMARK VINA RESULT:    -2.779      0.639      2.954
REMARK INTER + INTRA:          -3.419
REMARK INTER:                  -3.321
REMARK INTRA:                  -0.099
REMARK UNBOUND:                -0.153
REMARK  Name = C:\DDRIVE\PROJECT\authml\backend\results\ligand_1764476021743.pdb
REMARK  6 active torsions:
REMARK  status: ('A' for Active; 'I' for Inactive)
REMARK    1  A    between atoms: C_1  and  C_2
REMARK    2  A    between atoms: C_2  and  N_3
REMARK    3  A    between atoms: N_3  and  C_4
REMARK    4  A    between atoms: N_3  and  C_6
REMARK    5  A    between atoms: C_4  and  C_5
REMARK    6  A    between atoms: C_6  and  C_7
REMARK                            x       y       z     vdW  Elec       q    Type
REMARK                         _______ _______ _______ _____ _____    ______ ____
ROOT
ATOM      1  N   UNL     1      -4.052  -3.163   1.743  0.00  0.00    +0.000 NA
ENDROOT
BRANCH   1   3
ATOM      2  C   UNL     1      -3.656  -5.613   1.419  0.00  0.00    +0.000 C 
ATOM      3  C   UNL     1      -3.884  -4.251   0.768  0.00  0.00    +0.000 C 
ENDBRANCH   1   3
BRANCH   1   4
ATOM      4  C   UNL     1      -5.333  -2.445   1.623  0.00  0.00    +0.000 C 
ATOM      5  C   UNL     1      -5.704  -1.508   2.770  0.00  0.00    +0.000 C 
ENDBRANCH   1   4
BRANCH   1   6
ATOM      6  C   UNL     1      -3.811  -3.603   3.126  0.00  0.00    +0.000 C 
ATOM      7  C   UNL     1      -2.598  -2.929   3.764  0.00  0.00    +0.000 C 
ENDBRANCH   1   6
TORSDOF 3
ENDMDL
MODEL 6
REMARK VINA RESULT:    -2.689      1.142      2.661
REMARK INTER + INTRA:          -3.314
REMARK INTER:                  -3.174
REMARK INTRA:                  -0.140
REMARK UNBOUND:                -0.153
REMARK  Name = C:\DDRIVE\PROJECT\authml\backend\results\ligand_1764476021743.pdb
REMARK  6 active torsions:
REMARK  status: ('A' for Active; 'I' for Inactive)
REMARK    1  A    between atoms: C_1  and  C_2
REMARK    2  A    between atoms: C_2  and  N_3
REMARK    3  A    between atoms: N_3  and  C_4
REMARK    4  A    between atoms: N_3  and  C_6
REMARK    5  A    between atoms: C_4  and  C_5
REMARK    6  A    between atoms: C_6  and  C_7
REMARK                            x       y       z     vdW  Elec       q    Type
REMARK                         _______ _______ _______ _____ _____    ______ ____
ROOT
ATOM      1  N   UNL     1      -3.787  -3.617   1.558  0.00  0.00    +0.000 NA
ENDROOT
BRANCH   1   3
ATOM      2  C   UNL     1      -2.668  -2.947   3.694  0.00  0.00    +0.000 C 
ATOM      3  C   UNL     1      -3.546  -3.963   2.967  0.00  0.00    +0.000 C 
ENDBRANCH   1   3
BRANCH   1   4
ATOM      4  C   UNL     1      -4.224  -4.755   0.729  0.00  0.00    +0.000 C 
ATOM      5  C   UNL     1      -3.125  -5.601   0.091  0.00  0.00    +0.000 C 
ENDBRANCH   1   4
BRANCH   1   6
ATOM      6  C   UNL     1      -4.690  -2.466   1.406  0.00  0.00    +0.000 C 
ATOM      7  C   UNL     1      -4.864  -2.032  -0.048  0.00  0.00    +0.000 C 
ENDBRANCH   1   6
TORSDOF 3
ENDMDL
MODEL 7
REMARK VINA RESULT:    -2.605      1.678      3.114
REMARK INTER + INTRA:          -3.215
REMARK INTER:                  -3.027
REMARK INTRA:                  -0.188
REMARK UNBOUND:                -0.153
REMARK  Name = C:\DDRIVE\PROJECT\authml\backend\results\ligand_1764476021743.pdb
REMARK  6 active torsions:
REMARK  status: ('A' for Active; 'I' for Inactive)
REMARK    1  A    between atoms: C_1  and  C_2
REMARK    2  A    between atoms: C_2  and  N_3
REMARK    3  A    between atoms: N_3  and  C_4
REMARK    4  A    between atoms: N_3  and  C_6
REMARK    5  A    between atoms: C_4  and  C_5
REMARK    6  A    between atoms: C_6  and  C_7
REMARK                            x       y       z     vdW  Elec       q    Type
REMARK                         _______ _______ _______ _____ _____    ______ ____
ROOT
ATOM      1  N   UNL     1      -3.533  -4.633   1.619  0.00  0.00    +0.000 NA
ENDROOT
BRANCH   1   3
ATOM      2  C   UNL     1      -4.743  -2.908   0.270  0.00  0.00    +0.000 C 
ATOM      3  C   UNL     1      -4.009  -4.245   0.283  0.00  0.00    +0.000 C 
ENDBRANCH   1   3
BRANCH   1   4
ATOM      4  C   UNL     1      -3.922  -3.697   2.689  0.00  0.00    +0.000 C 
ATOM      5  C   UNL     1      -2.797  -3.142   3.558  0.00  0.00    +0.000 C 
ENDBRANCH   1   4
BRANCH   1   6
ATOM      6  C   UNL     1      -3.887  -6.019   1.964  0.00  0.00    +0.000 C 
ATOM      7  C   UNL     1      -5.395  -6.255   2.012  0.00  0.00    +0.000 C 
ENDBRANCH   1   6
TORSDOF 3
ENDMDL
MODEL 8
REMARK VINA RESULT:    -2.511     13.564     14.679
REMARK INTER + INTRA:          -3.104
REMARK INTER:                  -2.955
REMARK INTRA:                  -0.149
REMARK UNBOUND:                -0.153
REMARK  Name = C:\DDRIVE\PROJECT\authml\backend\results\ligand_1764476021743.pdb
REMARK  6 active torsions:
REMARK  status: ('A' for Active; 'I' for Inactive)
REMARK    1  A    between atoms: C_1  and  C_2
REMARK    2  A    between atoms: C_2  and  N_3
REMARK    3  A    between atoms: N_3  and  C_4
REMARK    4  A    between atoms: N_3  and  C_6
REMARK    5  A    between atoms: C_4  and  C_5
REMARK    6  A    between atoms: C_6  and  C_7
REMARK                            x       y       z     vdW  Elec       q    Type
REMARK                         _______ _______ _______ _____ _____    ______ ____
ROOT
ATOM      1  N   UNL     1       9.288  -4.911  -2.058  0.00  0.00    +0.000 NA
ENDROOT
BRANCH   1   3
ATOM      2  C   UNL     1       8.659  -6.548  -3.844  0.00  0.00    +0.000 C 
ATOM      3  C   UNL     1       9.678  -5.533  -3.332  0.00  0.00    +0.000 C 
ENDBRANCH   1   3
BRANCH   1   4
ATOM      4  C   UNL     1       9.380  -5.816  -0.898  0.00  0.00    +0.000 C 
ATOM      5  C   UNL     1       8.115  -5.992  -0.062  0.00  0.00    +0.000 C 
ENDBRANCH   1   4
BRANCH   1   6
ATOM      6  C   UNL     1       9.994  -3.645  -1.807  0.00  0.00    +0.000 C 
ATOM      7  C   UNL     1      10.761  -3.139  -3.027  0.00  0.00    +0.000 C 
ENDBRANCH   1   6
TORSDOF 3
ENDMDL
MODEL 9
REMARK VINA RESULT:    -2.449      2.238      4.590
REMARK INTER + INTRA:          -3.031
REMARK INTER:                  -2.871
REMARK INTRA:                  -0.161
REMARK UNBOUND:                -0.153
REMARK  Name = C:\DDRIVE\PROJECT\authml\backend\results\ligand_1764476021743.pdb
REMARK  6 active torsions:
REMARK  status: ('A' for Active; 'I' for Inactive)
REMARK    1  A    between atoms: C_1  and  C_2
REMARK    2  A    between atoms: C_2  and  N_3
REMARK    3  A    between atoms: N_3  and  C_4
REMARK    4  A    between atoms: N_3  and  C_6
REMARK    5  A    between atoms: C_4  and  C_5
REMARK    6  A    between atoms: C_6  and  C_7
REMARK                            x       y       z     vdW  Elec       q    Type
REMARK                         _______ _______ _______ _____ _____    ______ ____
ROOT
ATOM      1  N   UNL     1      -3.863  -5.857   0.687  0.00  0.00    +0.000 NA
ENDROOT
BRANCH   1   3
ATOM      2  C   UNL     1      -3.469  -8.076   1.776  0.00  0.00    +0.000 C 
ATOM      3  C   UNL     1      -4.174  -6.724   1.834  0.00  0.00    +0.000 C 
ENDBRANCH   1   3
BRANCH   1   4
ATOM      4  C   UNL     1      -3.715  -4.433   1.036  0.00  0.00    +0.000 C 
ATOM      5  C   UNL     1      -3.573  -4.101   2.520  0.00  0.00    +0.000 C 
ENDBRANCH   1   4
BRANCH   1   6
ATOM      6  C   UNL     1      -2.711  -6.341  -0.089  0.00  0.00    +0.000 C 
ATOM      7  C   UNL     1      -2.756  -5.911  -1.554  0.00  0.00    +0.000 C 
ENDBRANCH   1   6
TORSDOF 3
ENDMDL
