MODEL 1
REMARK VINA RESULT:    -2.406      0.000      0.000
REMARK INTER + INTRA:          -2.723
REMARK INTER:                  -2.687
REMARK INTRA:                  -0.036
REMARK UNBOUND:                -0.036
REMARK  Name = C:\DDRIVE\PROJECT\authml\backend\results\ligand_1764478627699.pdb
REMARK  4 active torsions:
REMARK  status: ('A' for Active; 'I' for Inactive)
REMARK    1  A    between atoms: C_1  and  C_2
REMARK    2  A    between atoms: C_2  and  O_3
REMARK    3  A    between atoms: O_3  and  P_4
REMARK    4  A    between atoms: P_4  and  C_5
REMARK                            x       y       z     vdW  Elec       q    Type
REMARK                         _______ _______ _______ _____ _____    ______ ____
ROOT
ATOM      1  P   UNL     1      -4.094  -4.863   0.765  0.00  0.00    +0.000 P 
ATOM      2  C   UNL     1      -4.527  -3.143   0.448  0.00  0.00    +0.000 C 
ATOM      3  O   UNL     1      -3.081  -5.328  -0.250  0.00  0.00    +0.000 OA
ATOM      4  H   UNL     1      -5.238  -5.644   1.032  0.00  0.00    +0.000 HD
ENDROOT
BRANCH   1   5
ATOM      5  O   UNL     1      -3.418  -4.748   2.244  0.00  0.00    +0.000 OA
BRANCH   5   7
ATOM      6  C   UNL     1      -2.706  -3.006   3.721  0.00  0.00    +0.000 C 
ATOM      7  C   UNL     1      -3.891  -3.714   3.100  0.00  0.00    +0.000 C 
ENDBRANCH   5   7
ENDBRANCH   1   5
TORSDOF 2
ENDMDL
MODEL 2
REMARK VINA RESULT:    -2.371      2.617      3.098
REMARK INTER + INTRA:          -2.684
REMARK INTER:                  -2.619
REMARK INTRA:                  -0.065
REMARK UNBOUND:                -0.036
REMARK  Name = C:\DDRIVE\PROJECT\authml\backend\results\ligand_1764478627699.pdb
REMARK  4 active torsions:
REMARK  status: ('A' for Active; 'I' for Inactive)
REMARK    1  A    between atoms: C_1  and  C_2
REMARK    2  A    between atoms: C_2  and  O_3
REMARK    3  A    between atoms: O_3  and  P_4
REMARK    4  A    between atoms: P_4  and  C_5
REMARK                            x       y       z     vdW  Elec       q    Type
REMARK                         _______ _______ _______ _____ _____    ______ ____
ROOT
ATOM      1  P   UNL     1      -3.616  -3.351   2.880  0.00  0.00    +0.000 P 
ATOM      2  C   UNL     1      -4.769  -1.973   2.752  0.00  0.00    +0.000 C 
ATOM      3  O   UNL     1      -2.683  -3.127   4.043  0.00  0.00    +0.000 OA
ATOM      4  H   UNL     1      -3.099  -3.713   1.618  0.00  0.00    +0.000 HD
ENDROOT
BRANCH   1   5
ATOM      5  O   UNL     1      -4.636  -4.585   3.188  0.00  0.00    +0.000 OA
BRANCH   5   7
ATOM      6  C   UNL     1      -3.583  -5.434   1.214  0.00  0.00    +0.000 C 
ATOM      7  C   UNL     1      -4.618  -5.687   2.289  0.00  0.00    +0.000 C 
ENDBRANCH   5   7
ENDBRANCH   1   5
TORSDOF 2
ENDMDL
MODEL 3
REMARK VINA RESULT:    -2.362      1.742      2.022
REMARK INTER + INTRA:          -2.674
REMARK INTER:                  -2.636
REMARK INTRA:                  -0.038
REMARK UNBOUND:                -0.036
REMARK  Name = C:\DDRIVE\PROJECT\authml\backend\results\ligand_1764478627699.pdb
REMARK  4 active torsions:
REMARK  status: ('A' for Active; 'I' for Inactive)
REMARK    1  A    between atoms: C_1  and  C_2
REMARK    2  A    between atoms: C_2  and  O_3
REMARK    3  A    between atoms: O_3  and  P_4
REMARK    4  A    between atoms: P_4  and  C_5
REMARK                            x       y       z     vdW  Elec       q    Type
REMARK                         _______ _______ _______ _____ _____    ______ ____
ROOT
ATOM      1  P   UNL     1      -4.237  -5.411   1.078  0.00  0.00    +0.000 P 
ATOM      2  C   UNL     1      -2.860  -6.279   0.307  0.00  0.00    +0.000 C 
ATOM      3  O   UNL     1      -4.662  -6.139   2.327  0.00  0.00    +0.000 OA
ATOM      4  H   UNL     1      -5.201  -5.020   0.124  0.00  0.00    +0.000 HD
ENDROOT
BRANCH   1   5
ATOM      5  O   UNL     1      -3.540  -3.985   1.449  0.00  0.00    +0.000 OA
BRANCH   5   7
ATOM      6  C   UNL     1      -2.819  -3.106   3.553  0.00  0.00    +0.000 C 
ATOM      7  C   UNL     1      -3.993  -3.321   2.622  0.00  0.00    +0.000 C 
ENDBRANCH   5   7
ENDBRANCH   1   5
TORSDOF 2
ENDMDL
MODEL 4
REMARK VINA RESULT:    -2.273      2.375      3.350
REMARK INTER + INTRA:          -2.574
REMARK INTER:                  -2.517
REMARK INTRA:                  -0.057
REMARK UNBOUND:                -0.036
REMARK  Name = C:\DDRIVE\PROJECT\authml\backend\results\ligand_1764478627699.pdb
REMARK  4 active torsions:
REMARK  status: ('A' for Active; 'I' for Inactive)
REMARK    1  A    between atoms: C_1  and  C_2
REMARK    2  A    between atoms: C_2  and  O_3
REMARK    3  A    between atoms: O_3  and  P_4
REMARK    4  A    between atoms: P_4  and  C_5
REMARK                            x       y       z     vdW  Elec       q    Type
REMARK                         _______ _______ _______ _____ _____    ______ ____
ROOT
ATOM      1  P   UNL     1      -4.040  -3.953   2.698  0.00  0.00    +0.000 P 
ATOM      2  C   UNL     1      -2.806  -3.051   3.653  0.00  0.00    +0.000 C 
ATOM      3  O   UNL     1      -4.993  -4.652   3.632  0.00  0.00    +0.000 OA
ATOM      4  H   UNL     1      -3.451  -4.659   1.628  0.00  0.00    +0.000 HD
ENDROOT
BRANCH   1   5
ATOM      5  O   UNL     1      -4.786  -2.731   1.919  0.00  0.00    +0.000 OA
BRANCH   5   7
ATOM      6  C   UNL     1      -6.255  -1.098   2.865  0.00  0.00    +0.000 C 
ATOM      7  C   UNL     1      -6.146  -2.477   2.251  0.00  0.00    +0.000 C 
ENDBRANCH   5   7
ENDBRANCH   1   5
TORSDOF 2
ENDMDL
MODEL 5
REMARK VINA RESULT:    -2.262      2.262      2.480
REMARK INTER + INTRA:          -2.562
REMARK INTER:                  -2.524
REMARK INTRA:                  -0.038
REMARK UNBOUND:                -0.036
REMARK  Name = C:\DDRIVE\PROJECT\authml\backend\results\ligand_1764478627699.pdb
REMARK  4 active torsions:
REMARK  status: ('A' for Active; 'I' for Inactive)
REMARK    1  A    between atoms: C_1  and  C_2
REMARK    2  A    between atoms: C_2  and  O_3
REMARK    3  A    between atoms: O_3  and  P_4
REMARK    4  A    between atoms: P_4  and  C_5
REMARK                            x       y       z     vdW  Elec       q    Type
REMARK                         _______ _______ _______ _____ _____    ______ ____
ROOT
ATOM      1  P   UNL     1      -5.426  -4.608   3.021  0.00  0.00    +0.000 P 
ATOM      2  C   UNL     1      -7.166  -4.372   2.619  0.00  0.00    +0.000 C 
ATOM      3  O   UNL     1      -4.957  -5.938   2.490  0.00  0.00    +0.000 OA
ATOM      4  H   UNL     1      -5.150  -4.241   4.356  0.00  0.00    +0.000 HD
ENDROOT
BRANCH   1   5
ATOM      5  O   UNL     1      -4.744  -3.381   2.193  0.00  0.00    +0.000 OA
BRANCH   5   7
ATOM      6  C   UNL     1      -2.822  -3.111   3.592  0.00  0.00    +0.000 C 
ATOM      7  C   UNL     1      -4.000  -2.423   2.936  0.00  0.00    +0.000 C 
ENDBRANCH   5   7
ENDBRANCH   1   5
TORSDOF 2
ENDMDL
MODEL 6
REMARK VINA RESULT:    -2.220      2.232      3.302
REMARK INTER + INTRA:          -2.516
REMARK INTER:                  -2.456
REMARK INTRA:                  -0.060
REMARK UNBOUND:                -0.036
REMARK  Name = C:\DDRIVE\PROJECT\authml\backend\results\ligand_1764478627699.pdb
REMARK  4 active torsions:
REMARK  status: ('A' for Active; 'I' for Inactive)
REMARK    1  A    between atoms: C_1  and  C_2
REMARK    2  A    between atoms: C_2  and  O_3
REMARK    3  A    between atoms: O_3  and  P_4
REMARK    4  A    between atoms: P_4  and  C_5
REMARK                            x       y       z     vdW  Elec       q    Type
REMARK                         _______ _______ _______ _____ _____    ______ ____
ROOT
ATOM      1  P   UNL     1      -4.214  -3.971   2.798  0.00  0.00    +0.000 P 
ATOM      2  C   UNL     1      -2.816  -3.130   3.564  0.00  0.00    +0.000 C 
ATOM      3  O   UNL     1      -5.439  -3.098   2.880  0.00  0.00    +0.000 OA
ATOM      4  H   UNL     1      -4.281  -5.324   3.191  0.00  0.00    +0.000 HD
ENDROOT
BRANCH   1   5
ATOM      5  O   UNL     1      -3.696  -4.097   1.258  0.00  0.00    +0.000 OA
BRANCH   5   7
ATOM      6  C   UNL     1      -3.957  -6.441   1.661  0.00  0.00    +0.000 C 
ATOM      7  C   UNL     1      -3.288  -5.384   0.808  0.00  0.00    +0.000 C 
ENDBRANCH   5   7
ENDBRANCH   1   5
TORSDOF 2
ENDMDL
MODEL 7
REMARK VINA RESULT:    -2.208      2.743      3.397
REMARK INTER + INTRA:          -2.502
REMARK INTER:                  -2.463
REMARK INTRA:                  -0.039
REMARK UNBOUND:                -0.036
REMARK  Name = C:\DDRIVE\PROJECT\authml\backend\results\ligand_1764478627699.pdb
REMARK  4 active torsions:
REMARK  status: ('A' for Active; 'I' for Inactive)
REMARK    1  A    between atoms: C_1  and  C_2
REMARK    2  A    between atoms: C_2  and  O_3
REMARK    3  A    between atoms: O_3  and  P_4
REMARK    4  A    between atoms: P_4  and  C_5
REMARK                            x       y       z     vdW  Elec       q    Type
REMARK                         _______ _______ _______ _____ _____    ______ ____
ROOT
ATOM      1  P   UNL     1      -3.714  -3.343   3.082  0.00  0.00    +0.000 P 
ATOM      2  C   UNL     1      -3.510  -4.415   1.648  0.00  0.00    +0.000 C 
ATOM      3  O   UNL     1      -2.365  -3.008   3.663  0.00  0.00    +0.000 OA
ATOM      4  H   UNL     1      -4.754  -3.795   3.922  0.00  0.00    +0.000 HD
ENDROOT
BRANCH   1   5
ATOM      5  O   UNL     1      -4.390  -2.028   2.396  0.00  0.00    +0.000 OA
BRANCH   5   7
ATOM      6  C   UNL     1      -4.884  -1.148   0.226  0.00  0.00    +0.000 C 
ATOM      7  C   UNL     1      -5.190  -2.233   1.237  0.00  0.00    +0.000 C 
ENDBRANCH   5   7
ENDBRANCH   1   5
TORSDOF 2
ENDMDL
MODEL 8
REMARK VINA RESULT:    -2.189     13.798     14.146
REMARK INTER + INTRA:          -2.481
REMARK INTER:                  -2.443
REMARK INTRA:                  -0.038
REMARK UNBOUND:                -0.036
REMARK  Name = C:\DDRIVE\PROJECT\authml\backend\results\ligand_1764478627699.pdb
REMARK  4 active torsions:
REMARK  status: ('A' for Active; 'I' for Inactive)
REMARK    1  A    between atoms: C_1  and  C_2
REMARK    2  A    between atoms: C_2  and  O_3
REMARK    3  A    between atoms: O_3  and  P_4
REMARK    4  A    between atoms: P_4  and  C_5
REMARK                            x       y       z     vdW  Elec       q    Type
REMARK                         _______ _______ _______ _____ _____    ______ ____
ROOT
ATOM      1  P   UNL     1      10.265  -3.770  -1.617  0.00  0.00    +0.000 P 
ATOM      2  C   UNL     1      10.727  -3.092  -3.222  0.00  0.00    +0.000 C 
ATOM      3  O   UNL     1      10.004  -2.647  -0.647  0.00  0.00    +0.000 OA
ATOM      4  H   UNL     1      11.102  -4.844  -1.249  0.00  0.00    +0.000 HD
ENDROOT
BRANCH   1   5
ATOM      5  O   UNL     1       8.879  -4.543  -1.992  0.00  0.00    +0.000 OA
BRANCH   5   7
ATOM      6  C   UNL     1       8.756  -6.275  -3.637  0.00  0.00    +0.000 C 
ATOM      7  C   UNL     1       8.944  -5.953  -2.170  0.00  0.00    +0.000 C 
ENDBRANCH   5   7
ENDBRANCH   1   5
TORSDOF 2
ENDMDL
MODEL 9
REMARK VINA RESULT:    -2.055      2.766      2.961
REMARK INTER + INTRA:          -2.331
REMARK INTER:                  -2.270
REMARK INTRA:                  -0.062
REMARK UNBOUND:                -0.036
REMARK  Name = C:\DDRIVE\PROJECT\authml\backend\results\ligand_1764478627699.pdb
REMARK  4 active torsions:
REMARK  status: ('A' for Active; 'I' for Inactive)
REMARK    1  A    between atoms: C_1  and  C_2
REMARK    2  A    between atoms: C_2  and  O_3
REMARK    3  A    between atoms: O_3  and  P_4
REMARK    4  A    between atoms: P_4  and  C_5
REMARK                            x       y       z     vdW  Elec       q    Type
REMARK                         _______ _______ _______ _____ _____    ______ ____
ROOT
ATOM      1  P   UNL     1      -5.122  -2.209   1.687  0.00  0.00    +0.000 P 
ATOM      2  C   UNL     1      -6.629  -1.573   2.443  0.00  0.00    +0.000 C 
ATOM      3  O   UNL     1      -4.714  -1.320   0.540  0.00  0.00    +0.000 OA
ATOM      4  H   UNL     1      -5.181  -3.608   1.511  0.00  0.00    +0.000 HD
ENDROOT
BRANCH   1   5
ATOM      5  O   UNL     1      -4.070  -2.074   2.925  0.00  0.00    +0.000 OA
BRANCH   5   7
ATOM      6  C   UNL     1      -3.597  -4.324   2.263  0.00  0.00    +0.000 C 
ATOM      7  C   UNL     1      -3.215  -3.182   3.181  0.00  0.00    +0.000 C 
ENDBRANCH   5   7
ENDBRANCH   1   5
TORSDOF 2
ENDMDL
