MODEL 1
REMARK VINA RESULT:    -2.941      0.000      0.000
REMARK INTER + INTRA:          -3.613
REMARK INTER:                  -3.457
REMARK INTRA:                  -0.156
REMARK UNBOUND:                -0.156
REMARK  Name = C:\DDRIVE\PROJECT\authml\backend\results\ligand_1764477588724.pdb
REMARK  6 active torsions:
REMARK  status: ('A' for Active; 'I' for Inactive)
REMARK    1  A    between atoms: C_1  and  C_2
REMARK    2  A    between atoms: C_2  and  N_3
REMARK    3  A    between atoms: N_3  and  C_4
REMARK    4  A    between atoms: N_3  and  C_6
REMARK    5  A    between atoms: C_4  and  C_5
REMARK    6  A    between atoms: C_6  and  C_7
REMARK                            x       y       z     vdW  Elec       q    Type
REMARK                         _______ _______ _______ _____ _____    ______ ____
ROOT
ATOM      1  N   UNL     1      -4.537  -3.210   2.194  0.00  0.00    +0.000 NA
ENDROOT
BRANCH   1   3
ATOM      2  C   UNL     1      -3.567  -4.976   0.705  0.00  0.00    +0.000 C 
ATOM      3  C   UNL     1      -4.212  -3.596   0.812  0.00  0.00    +0.000 C 
ENDBRANCH   1   3
BRANCH   1   4
ATOM      4  C   UNL     1      -3.644  -3.803   3.207  0.00  0.00    +0.000 C 
ATOM      5  C   UNL     1      -2.581  -2.885   3.804  0.00  0.00    +0.000 C 
ENDBRANCH   1   4
BRANCH   1   6
ATOM      6  C   UNL     1      -4.642  -1.752   2.363  0.00  0.00    +0.000 C 
ATOM      7  C   UNL     1      -6.032  -1.303   2.806  0.00  0.00    +0.000 C 
ENDBRANCH   1   6
TORSDOF 3
ENDMDL
MODEL 2
REMARK VINA RESULT:    -2.920      0.113      3.219
REMARK INTER + INTRA:          -3.588
REMARK INTER:                  -3.434
REMARK INTRA:                  -0.154
REMARK UNBOUND:                -0.156
REMARK  Name = C:\DDRIVE\PROJECT\authml\backend\results\ligand_1764477588724.pdb
REMARK  6 active torsions:
REMARK  status: ('A' for Active; 'I' for Inactive)
REMARK    1  A    between atoms: C_1  and  C_2
REMARK    2  A    between atoms: C_2  and  N_3
REMARK    3  A    between atoms: N_3  and  C_4
REMARK    4  A    between atoms: N_3  and  C_6
REMARK    5  A    between atoms: C_4  and  C_5
REMARK    6  A    between atoms: C_6  and  C_7
REMARK                            x       y       z     vdW  Elec       q    Type
REMARK                         _______ _______ _______ _____ _____    ______ ____
ROOT
ATOM      1  N   UNL     1      -4.505  -3.269   2.153  0.00  0.00    +0.000 NA
ENDROOT
BRANCH   1   3
ATOM      2  C   UNL     1      -5.933  -1.339   2.867  0.00  0.00    +0.000 C 
ATOM      3  C   UNL     1      -4.579  -1.812   2.343  0.00  0.00    +0.000 C 
ENDBRANCH   1   3
BRANCH   1   4
ATOM      4  C   UNL     1      -4.202  -3.678   0.769  0.00  0.00    +0.000 C 
ATOM      5  C   UNL     1      -3.481  -5.012   0.593  0.00  0.00    +0.000 C 
ENDBRANCH   1   4
BRANCH   1   6
ATOM      6  C   UNL     1      -3.598  -3.918   3.113  0.00  0.00    +0.000 C 
ATOM      7  C   UNL     1      -2.643  -2.937   3.788  0.00  0.00    +0.000 C 
ENDBRANCH   1   6
TORSDOF 3
ENDMDL
MODEL 3
REMARK VINA RESULT:    -2.919      0.281      3.256
REMARK INTER + INTRA:          -3.587
REMARK INTER:                  -3.438
REMARK INTRA:                  -0.149
REMARK UNBOUND:                -0.156
REMARK  Name = C:\DDRIVE\PROJECT\authml\backend\results\ligand_1764477588724.pdb
REMARK  6 active torsions:
REMARK  status: ('A' for Active; 'I' for Inactive)
REMARK    1  A    between atoms: C_1  and  C_2
REMARK    2  A    between atoms: C_2  and  N_3
REMARK    3  A    between atoms: N_3  and  C_4
REMARK    4  A    between atoms: N_3  and  C_6
REMARK    5  A    between atoms: C_4  and  C_5
REMARK    6  A    between atoms: C_6  and  C_7
REMARK                            x       y       z     vdW  Elec       q    Type
REMARK                         _______ _______ _______ _____ _____    ______ ____
ROOT
ATOM      1  N   UNL     1      -4.498  -3.364   2.157  0.00  0.00    +0.000 NA
ENDROOT
BRANCH   1   3
ATOM      2  C   UNL     1      -2.604  -2.915   3.734  0.00  0.00    +0.000 C 
ATOM      3  C   UNL     1      -3.758  -3.834   3.339  0.00  0.00    +0.000 C 
ENDBRANCH   1   3
BRANCH   1   4
ATOM      4  C   UNL     1      -4.685  -1.902   2.110  0.00  0.00    +0.000 C 
ATOM      5  C   UNL     1      -5.881  -1.341   2.875  0.00  0.00    +0.000 C 
ENDBRANCH   1   4
BRANCH   1   6
ATOM      6  C   UNL     1      -3.930  -3.870   0.897  0.00  0.00    +0.000 C 
ATOM      7  C   UNL     1      -3.483  -5.327   0.988  0.00  0.00    +0.000 C 
ENDBRANCH   1   6
TORSDOF 3
ENDMDL
MODEL 4
REMARK VINA RESULT:    -2.862      0.610      2.577
REMARK INTER + INTRA:          -3.520
REMARK INTER:                  -3.376
REMARK INTRA:                  -0.143
REMARK UNBOUND:                -0.156
REMARK  Name = C:\DDRIVE\PROJECT\authml\backend\results\ligand_1764477588724.pdb
REMARK  6 active torsions:
REMARK  status: ('A' for Active; 'I' for Inactive)
REMARK    1  A    between atoms: C_1  and  C_2
REMARK    2  A    between atoms: C_2  and  N_3
REMARK    3  A    between atoms: N_3  and  C_4
REMARK    4  A    between atoms: N_3  and  C_6
REMARK    5  A    between atoms: C_4  and  C_5
REMARK    6  A    between atoms: C_6  and  C_7
REMARK                            x       y       z     vdW  Elec       q    Type
REMARK                         _______ _______ _______ _____ _____    ______ ____
ROOT
ATOM      1  N   UNL     1      -4.244  -3.103   1.962  0.00  0.00    +0.000 NA
ENDROOT
BRANCH   1   3
ATOM      2  C   UNL     1      -2.588  -2.872   3.827  0.00  0.00    +0.000 C 
ATOM      3  C   UNL     1      -3.380  -3.811   2.920  0.00  0.00    +0.000 C 
ENDBRANCH   1   3
BRANCH   1   4
ATOM      4  C   UNL     1      -4.302  -3.733   0.629  0.00  0.00    +0.000 C 
ATOM      5  C   UNL     1      -3.533  -5.040   0.456  0.00  0.00    +0.000 C 
ENDBRANCH   1   4
BRANCH   1   6
ATOM      6  C   UNL     1      -5.592  -2.854   2.494  0.00  0.00    +0.000 C 
ATOM      7  C   UNL     1      -5.859  -1.379   2.779  0.00  0.00    +0.000 C 
ENDBRANCH   1   6
TORSDOF 3
ENDMDL
MODEL 5
REMARK VINA RESULT:    -2.808      1.300      3.130
REMARK INTER + INTRA:          -3.457
REMARK INTER:                  -3.332
REMARK INTRA:                  -0.125
REMARK UNBOUND:                -0.156
REMARK  Name = C:\DDRIVE\PROJECT\authml\backend\results\ligand_1764477588724.pdb
REMARK  6 active torsions:
REMARK  status: ('A' for Active; 'I' for Inactive)
REMARK    1  A    between atoms: C_1  and  C_2
REMARK    2  A    between atoms: C_2  and  N_3
REMARK    3  A    between atoms: N_3  and  C_4
REMARK    4  A    between atoms: N_3  and  C_6
REMARK    5  A    between atoms: C_4  and  C_5
REMARK    6  A    between atoms: C_6  and  C_7
REMARK                            x       y       z     vdW  Elec       q    Type
REMARK                         _______ _______ _______ _____ _____    ______ ____
ROOT
ATOM      1  N   UNL     1      -3.600  -4.127   1.590  0.00  0.00    +0.000 NA
ENDROOT
BRANCH   1   3
ATOM      2  C   UNL     1      -4.859  -2.093   0.849  0.00  0.00    +0.000 C 
ATOM      3  C   UNL     1      -4.441  -3.529   0.541  0.00  0.00    +0.000 C 
ENDBRANCH   1   3
BRANCH   1   4
ATOM      4  C   UNL     1      -3.875  -3.614   2.945  0.00  0.00    +0.000 C 
ATOM      5  C   UNL     1      -2.687  -3.046   3.716  0.00  0.00    +0.000 C 
ENDBRANCH   1   4
BRANCH   1   6
ATOM      6  C   UNL     1      -3.622  -5.598   1.561  0.00  0.00    +0.000 C 
ATOM      7  C   UNL     1      -2.888  -6.182   0.358  0.00  0.00    +0.000 C 
ENDBRANCH   1   6
TORSDOF 3
ENDMDL
MODEL 6
REMARK VINA RESULT:    -2.784      1.445      2.222
REMARK INTER + INTRA:          -3.429
REMARK INTER:                  -3.226
REMARK INTRA:                  -0.202
REMARK UNBOUND:                -0.156
REMARK  Name = C:\DDRIVE\PROJECT\authml\backend\results\ligand_1764477588724.pdb
REMARK  6 active torsions:
REMARK  status: ('A' for Active; 'I' for Inactive)
REMARK    1  A    between atoms: C_1  and  C_2
REMARK    2  A    between atoms: C_2  and  N_3
REMARK    3  A    between atoms: N_3  and  C_4
REMARK    4  A    between atoms: N_3  and  C_6
REMARK    5  A    between atoms: C_4  and  C_5
REMARK    6  A    between atoms: C_6  and  C_7
REMARK                            x       y       z     vdW  Elec       q    Type
REMARK                         _______ _______ _______ _____ _____    ______ ____
ROOT
ATOM      1  N   UNL     1      -3.827  -4.180   1.944  0.00  0.00    +0.000 NA
ENDROOT
BRANCH   1   3
ATOM      2  C   UNL     1      -4.759  -2.436   0.407  0.00  0.00    +0.000 C 
ATOM      3  C   UNL     1      -4.151  -3.829   0.553  0.00  0.00    +0.000 C 
ENDBRANCH   1   3
BRANCH   1   4
ATOM      4  C   UNL     1      -3.797  -3.026   2.862  0.00  0.00    +0.000 C 
ATOM      5  C   UNL     1      -2.602  -2.935   3.807  0.00  0.00    +0.000 C 
ENDBRANCH   1   4
BRANCH   1   6
ATOM      6  C   UNL     1      -4.682  -5.257   2.468  0.00  0.00    +0.000 C 
ATOM      7  C   UNL     1      -5.965  -4.740   3.113  0.00  0.00    +0.000 C 
ENDBRANCH   1   6
TORSDOF 3
ENDMDL
MODEL 7
REMARK VINA RESULT:    -2.678      1.177      2.711
REMARK INTER + INTRA:          -3.304
REMARK INTER:                  -3.154
REMARK INTRA:                  -0.150
REMARK UNBOUND:                -0.156
REMARK  Name = C:\DDRIVE\PROJECT\authml\backend\results\ligand_1764477588724.pdb
REMARK  6 active torsions:
REMARK  status: ('A' for Active; 'I' for Inactive)
REMARK    1  A    between atoms: C_1  and  C_2
REMARK    2  A    between atoms: C_2  and  N_3
REMARK    3  A    between atoms: N_3  and  C_4
REMARK    4  A    between atoms: N_3  and  C_6
REMARK    5  A    between atoms: C_4  and  C_5
REMARK    6  A    between atoms: C_6  and  C_7
REMARK                            x       y       z     vdW  Elec       q    Type
REMARK                         _______ _______ _______ _____ _____    ______ ____
ROOT
ATOM      1  N   UNL     1      -3.618  -3.929   1.443  0.00  0.00    +0.000 NA
ENDROOT
BRANCH   1   3
ATOM      2  C   UNL     1      -4.438  -6.213   2.065  0.00  0.00    +0.000 C 
ATOM      3  C   UNL     1      -3.565  -5.368   1.140  0.00  0.00    +0.000 C 
ENDBRANCH   1   3
BRANCH   1   4
ATOM      4  C   UNL     1      -4.477  -3.156   0.528  0.00  0.00    +0.000 C 
ATOM      5  C   UNL     1      -4.896  -1.765   0.995  0.00  0.00    +0.000 C 
ENDBRANCH   1   4
BRANCH   1   6
ATOM      6  C   UNL     1      -3.958  -3.661   2.849  0.00  0.00    +0.000 C 
ATOM      7  C   UNL     1      -2.783  -3.113   3.653  0.00  0.00    +0.000 C 
ENDBRANCH   1   6
TORSDOF 3
ENDMDL
MODEL 8
REMARK VINA RESULT:    -2.552      1.784      2.917
REMARK INTER + INTRA:          -3.155
REMARK INTER:                  -2.960
REMARK INTRA:                  -0.196
REMARK UNBOUND:                -0.156
REMARK  Name = C:\DDRIVE\PROJECT\authml\backend\results\ligand_1764477588724.pdb
REMARK  6 active torsions:
REMARK  status: ('A' for Active; 'I' for Inactive)
REMARK    1  A    between atoms: C_1  and  C_2
REMARK    2  A    between atoms: C_2  and  N_3
REMARK    3  A    between atoms: N_3  and  C_4
REMARK    4  A    between atoms: N_3  and  C_6
REMARK    5  A    between atoms: C_4  and  C_5
REMARK    6  A    between atoms: C_6  and  C_7
REMARK                            x       y       z     vdW  Elec       q    Type
REMARK                         _______ _______ _______ _____ _____    ______ ____
ROOT
ATOM      1  N   UNL     1      -4.651  -4.852   1.922  0.00  0.00    +0.000 NA
ENDROOT
BRANCH   1   3
ATOM      2  C   UNL     1      -4.751  -3.283  -0.029  0.00  0.00    +0.000 C 
ATOM      3  C   UNL     1      -3.889  -4.179   0.858  0.00  0.00    +0.000 C 
ENDBRANCH   1   3
BRANCH   1   4
ATOM      4  C   UNL     1      -4.399  -6.302   2.014  0.00  0.00    +0.000 C 
ATOM      5  C   UNL     1      -3.276  -6.858   1.142  0.00  0.00    +0.000 C 
ENDBRANCH   1   4
BRANCH   1   6
ATOM      6  C   UNL     1      -4.490  -4.198   3.230  0.00  0.00    +0.000 C 
ATOM      7  C   UNL     1      -3.163  -3.457   3.368  0.00  0.00    +0.000 C 
ENDBRANCH   1   6
TORSDOF 3
ENDMDL
MODEL 9
REMARK VINA RESULT:    -2.516     13.684     14.791
REMARK INTER + INTRA:          -3.114
REMARK INTER:                  -2.970
REMARK INTRA:                  -0.144
REMARK UNBOUND:                -0.156
REMARK  Name = C:\DDRIVE\PROJECT\authml\backend\results\ligand_1764477588724.pdb
REMARK  6 active torsions:
REMARK  status: ('A' for Active; 'I' for Inactive)
REMARK    1  A    between atoms: C_1  and  C_2
REMARK    2  A    between atoms: C_2  and  N_3
REMARK    3  A    between atoms: N_3  and  C_4
REMARK    4  A    between atoms: N_3  and  C_6
REMARK    5  A    between atoms: C_4  and  C_5
REMARK    6  A    between atoms: C_6  and  C_7
REMARK                            x       y       z     vdW  Elec       q    Type
REMARK                         _______ _______ _______ _____ _____    ______ ____
ROOT
ATOM      1  N   UNL     1       9.758  -5.049  -1.873  0.00  0.00    +0.000 NA
ENDROOT
BRANCH   1   3
ATOM      2  C   UNL     1       8.273  -5.933  -0.058  0.00  0.00    +0.000 C 
ATOM      3  C   UNL     1       8.393  -5.085  -1.323  0.00  0.00    +0.000 C 
ENDBRANCH   1   3
BRANCH   1   4
ATOM      4  C   UNL     1       9.937  -5.868  -3.086  0.00  0.00    +0.000 C 
ATOM      5  C   UNL     1       8.667  -6.406  -3.741  0.00  0.00    +0.000 C 
ENDBRANCH   1   4
BRANCH   1   6
ATOM      6  C   UNL     1      10.248  -3.677  -2.077  0.00  0.00    +0.000 C 
ATOM      7  C   UNL     1      10.905  -3.475  -3.440  0.00  0.00    +0.000 C 
ENDBRANCH   1   6
TORSDOF 3
ENDMDL
