MODEL 1
REMARK VINA RESULT:    -6.472      0.000      0.000
REMARK INTER + INTRA:          -8.656
REMARK INTER:                  -7.986
REMARK INTRA:                  -0.670
REMARK UNBOUND:                -0.670
REMARK  Name = C:\Users\Bellamkonda Sowmya\OneDrive\Desktop\2nd yr notes\ps1\authml\authml\backend\results\ligand_1764924550865.pdb
REMARK  4 active torsions:
REMARK  status: ('A' for Active; 'I' for Inactive)
REMARK    1  A    between atoms: S_2  and  N_4
REMARK    2  A    between atoms: S_2  and  C_21
REMARK    3  A    between atoms: N_4  and  C_5
REMARK    4  A    between atoms: C_9  and  C_10
REMARK                            x       y       z     vdW  Elec       q    Type
REMARK                         _______ _______ _______ _____ _____    ______ ____
ROOT
ATOM      1  C   UNL     1      -2.917  -6.687  -0.603  0.00  0.00    +0.000 A 
ATOM      2  C   UNL     1      -3.440  -7.966  -0.865  0.00  0.00    +0.000 A 
ATOM      3  C   UNL     1      -3.487  -8.467  -2.158  0.00  0.00    +0.000 A 
ATOM      4  C   UNL     1      -3.028  -7.700  -3.207  0.00  0.00    +0.000 A 
ATOM      5  C   UNL     1      -2.495  -6.496  -2.946  0.00  0.00    +0.000 A 
ATOM      6  C   UNL     1      -2.517  -6.320  -1.818  0.00  0.00    +0.000 A 
ENDROOT
BRANCH   5   7
ATOM      7  C   UNL     1      -1.951  -5.526  -3.983  0.00  0.00    +0.000 A 
ATOM      8  C   UNL     1      -4.694  -0.995  -4.172  0.00  0.00    +0.000 A 
ATOM      9  N   UNL     1      -3.894  -2.129  -4.041  0.00  0.00    +0.000 NA
ATOM     10  C   UNL     1      -2.969  -2.447  -5.031  0.00  0.00    +0.000 A 
ATOM     11  C   UNL     1      -2.677  -1.773  -6.231  0.00  0.00    +0.000 A 
ATOM     12  C   UNL     1      -1.664  -2.215  -7.070  0.00  0.00    +0.000 A 
ATOM     13  C   UNL     1      -0.920  -3.320  -6.721  0.00  0.00    +0.000 A 
ATOM     14  C   UNL     1      -1.228  -3.983  -5.594  0.00  0.00    +0.000 A 
ATOM     15  C   UNL     1      -2.121  -3.470  -5.099  0.00  0.00    +0.000 A 
ATOM     16  N   UNL     1      -2.592  -4.309  -4.202  0.00  0.00    +0.000 NA
ENDBRANCH   5   7
BRANCH   1  17
ATOM     17  N   UNL     1      -2.821  -5.959   0.670  0.00  0.00    +0.000 N 
ATOM     18  H   UNL     1      -1.907  -5.765   1.079  0.00  0.00    +0.000 HD
BRANCH  17  20
ATOM     19  O   UNL     1      -5.322  -4.995   0.448  0.00  0.00    +0.000 OA
ATOM     20  S   UNL     1      -4.283  -5.420   1.488  0.00  0.00    +0.000 S 
ATOM     21  O   UNL     1      -4.846  -6.564   2.334  0.00  0.00    +0.000 OA
BRANCH  20  22
ATOM     22  C   UNL     1      -3.891  -4.014   2.560  0.00  0.00    +0.000 A 
ATOM     23  C   UNL     1      -4.025  -2.527   3.052  0.00  0.00    +0.000 A 
ATOM     24  C   UNL     1      -2.702  -2.963   3.713  0.00  0.00    +0.000 A 
ATOM     25  C   UNL     1      -2.702  -2.963   3.713  0.00  0.00    +0.000 A 
ATOM     26  S   UNL     1      -2.702  -2.963   3.713  0.00  0.00    +0.000 S 
ENDBRANCH  20  22
ENDBRANCH  17  20
ENDBRANCH   1  17
TORSDOF 4
ENDMDL
