MODEL 1
REMARK VINA RESULT:    -4.222      0.000      0.000
REMARK INTER + INTRA:          -5.726
REMARK INTER:                  -5.086
REMARK INTRA:                  -0.640
REMARK UNBOUND:                -0.640
REMARK  Name = results/d2949fdc-d2a8-4405-b932-33f55f7909a2_ligand.pdb
REMARK  5 active torsions:
REMARK  status: ('A' for Active; 'I' for Inactive)
REMARK    1  A    between atoms: C1_1  and  C2_2
REMARK    2  A    between atoms: C2_2  and  O2_4
REMARK    3  A    between atoms: O2_4  and  C3_5
REMARK    4  A    between atoms: C8_10  and  C9_11
REMARK    5  A    between atoms: C9_11  and  O4_13
REMARK                            x       y       z     vdW  Elec       q    Type
REMARK                         _______ _______ _______ _____ _____    ______ ____
ROOT
ATOM      1  C3  UNL     1      10.014  -4.002  -1.105  0.00  0.00    +0.000 A 
ATOM      2  C4  UNL     1       9.182  -4.832  -0.329  0.00  0.00    +0.000 A 
ATOM      3  C5  UNL     1       8.619  -5.985  -0.878  0.00  0.00    +0.000 A 
ATOM      4  C6  UNL     1       8.867  -6.318  -2.207  0.00  0.00    +0.000 A 
ATOM      5  C7  UNL     1       9.673  -5.497  -2.997  0.00  0.00    +0.000 A 
ATOM      6  C8  UNL     1      10.252  -4.329  -2.463  0.00  0.00    +0.000 A 
ENDROOT
BRANCH   6   7
ATOM      7  C9  UNL     1      11.103  -3.482  -3.341  0.00  0.00    +0.000 C 
ATOM      8  O3  UNL     1      12.275  -3.832  -3.641  0.00  0.00    +0.000 OA
BRANCH   7   9
ATOM      9  O4  UNL     1      10.608  -2.282  -3.844  0.00  0.00    +0.000 OA
ATOM     10  H8  UNL     1      10.570  -2.111  -4.843  0.00  0.00    +0.000 HD
ENDBRANCH   7   9
ENDBRANCH   6   7
BRANCH   1  11
ATOM     11  O2  UNL     1      10.573  -2.832  -0.560  0.00  0.00    +0.000 OA
BRANCH  11  13
ATOM     12  C1  UNL     1       9.686  -1.077   0.975  0.00  0.00    +0.000 C 
ATOM     13  C2  UNL     1       9.903  -1.614  -0.399  0.00  0.00    +0.000 C 
ATOM     14  O1  UNL     1       9.396  -1.015  -1.387  0.00  0.00    +0.000 OA
ENDBRANCH  11  13
ENDBRANCH   1  11
TORSDOF 4
ENDMDL
MODEL 2
REMARK VINA RESULT:    -4.156     13.825     14.832
REMARK INTER + INTRA:          -5.646
REMARK INTER:                  -5.032
REMARK INTRA:                  -0.614
REMARK UNBOUND:                -0.640
REMARK  Name = results/d2949fdc-d2a8-4405-b932-33f55f7909a2_ligand.pdb
REMARK  5 active torsions:
REMARK  status: ('A' for Active; 'I' for Inactive)
REMARK    1  A    between atoms: C1_1  and  C2_2
REMARK    2  A    between atoms: C2_2  and  O2_4
REMARK    3  A    between atoms: O2_4  and  C3_5
REMARK    4  A    between atoms: C8_10  and  C9_11
REMARK    5  A    between atoms: C9_11  and  O4_13
REMARK                            x       y       z     vdW  Elec       q    Type
REMARK                         _______ _______ _______ _____ _____    ______ ____
ROOT
ATOM      1  C3  UNL     1      -4.541  -3.956   0.542  0.00  0.00    +0.000 A 
ATOM      2  C4  UNL     1      -4.929  -2.610   0.690  0.00  0.00    +0.000 A 
ATOM      3  C5  UNL     1      -4.622  -1.906   1.855  0.00  0.00    +0.000 A 
ATOM      4  C6  UNL     1      -3.935  -2.536   2.890  0.00  0.00    +0.000 A 
ATOM      5  C7  UNL     1      -3.560  -3.875   2.770  0.00  0.00    +0.000 A 
ATOM      6  C8  UNL     1      -3.860  -4.604   1.603  0.00  0.00    +0.000 A 
ENDROOT
BRANCH   6   7
ATOM      7  C9  UNL     1      -3.443  -6.029   1.517  0.00  0.00    +0.000 C 
ATOM      8  O3  UNL     1      -4.080  -6.929   2.128  0.00  0.00    +0.000 OA
BRANCH   7   9
ATOM      9  O4  UNL     1      -2.335  -6.387   0.755  0.00  0.00    +0.000 OA
ATOM     10  H8  UNL     1      -1.929  -7.313   0.827  0.00  0.00    +0.000 HD
ENDBRANCH   7   9
ENDBRANCH   6   7
BRANCH   1  11
ATOM     11  O2  UNL     1      -4.862  -4.673  -0.623  0.00  0.00    +0.000 OA
BRANCH  11  13
ATOM     12  C1  UNL     1      -4.533  -3.774  -2.927  0.00  0.00    +0.000 C 
ATOM     13  C2  UNL     1      -4.116  -4.667  -1.808  0.00  0.00    +0.000 C 
ATOM     14  O1  UNL     1      -3.162  -5.474  -1.981  0.00  0.00    +0.000 OA
ENDBRANCH  11  13
ENDBRANCH   1  11
TORSDOF 4
ENDMDL
MODEL 3
REMARK VINA RESULT:    -4.047     14.146     15.147
REMARK INTER + INTRA:          -5.515
REMARK INTER:                  -4.893
REMARK INTRA:                  -0.622
REMARK UNBOUND:                -0.640
REMARK  Name = results/d2949fdc-d2a8-4405-b932-33f55f7909a2_ligand.pdb
REMARK  5 active torsions:
REMARK  status: ('A' for Active; 'I' for Inactive)
REMARK    1  A    between atoms: C1_1  and  C2_2
REMARK    2  A    between atoms: C2_2  and  O2_4
REMARK    3  A    between atoms: O2_4  and  C3_5
REMARK    4  A    between atoms: C8_10  and  C9_11
REMARK    5  A    between atoms: C9_11  and  O4_13
REMARK                            x       y       z     vdW  Elec       q    Type
REMARK                         _______ _______ _______ _____ _____    ______ ____
ROOT
ATOM      1  C3  UNL     1      -3.759  -4.340   1.581  0.00  0.00    +0.000 A 
ATOM      2  C4  UNL     1      -3.340  -3.765   2.798  0.00  0.00    +0.000 A 
ATOM      3  C5  UNL     1      -3.711  -2.462   3.131  0.00  0.00    +0.000 A 
ATOM      4  C6  UNL     1      -4.491  -1.711   2.256  0.00  0.00    +0.000 A 
ATOM      5  C7  UNL     1      -4.899  -2.257   1.038  0.00  0.00    +0.000 A 
ATOM      6  C8  UNL     1      -4.536  -3.570   0.680  0.00  0.00    +0.000 A 
ENDROOT
BRANCH   6   7
ATOM      7  C9  UNL     1      -4.991  -4.111  -0.629  0.00  0.00    +0.000 C 
ATOM      8  O3  UNL     1      -4.721  -3.515  -1.706  0.00  0.00    +0.000 OA
BRANCH   7   9
ATOM      9  O4  UNL     1      -5.726  -5.293  -0.678  0.00  0.00    +0.000 OA
ATOM     10  H8  UNL     1      -6.385  -5.466  -1.428  0.00  0.00    +0.000 HD
ENDBRANCH   7   9
ENDBRANCH   6   7
BRANCH   1  11
ATOM     11  O2  UNL     1      -3.376  -5.647   1.234  0.00  0.00    +0.000 OA
BRANCH  11  13
ATOM     12  C1  UNL     1      -3.203  -8.092   1.696  0.00  0.00    +0.000 C 
ATOM     13  C2  UNL     1      -3.980  -6.819   1.704  0.00  0.00    +0.000 C 
ATOM     14  O1  UNL     1      -5.195  -6.836   2.040  0.00  0.00    +0.000 OA
ENDBRANCH  11  13
ENDBRANCH   1  11
TORSDOF 4
ENDMDL
MODEL 4
REMARK VINA RESULT:    -3.791     14.213     15.223
REMARK INTER + INTRA:          -5.206
REMARK INTER:                  -4.489
REMARK INTRA:                  -0.718
REMARK UNBOUND:                -0.640
REMARK  Name = results/d2949fdc-d2a8-4405-b932-33f55f7909a2_ligand.pdb
REMARK  5 active torsions:
REMARK  status: ('A' for Active; 'I' for Inactive)
REMARK    1  A    between atoms: C1_1  and  C2_2
REMARK    2  A    between atoms: C2_2  and  O2_4
REMARK    3  A    between atoms: O2_4  and  C3_5
REMARK    4  A    between atoms: C8_10  and  C9_11
REMARK    5  A    between atoms: C9_11  and  O4_13
REMARK                            x       y       z     vdW  Elec       q    Type
REMARK                         _______ _______ _______ _____ _____    ______ ____
ROOT
ATOM      1  C3  UNL     1      -4.015  -3.862   0.789  0.00  0.00    +0.000 A 
ATOM      2  C4  UNL     1      -4.579  -3.427  -0.426  0.00  0.00    +0.000 A 
ATOM      3  C5  UNL     1      -5.160  -2.162  -0.527  0.00  0.00    +0.000 A 
ATOM      4  C6  UNL     1      -5.196  -1.321   0.582  0.00  0.00    +0.000 A 
ATOM      5  C7  UNL     1      -4.660  -1.742   1.800  0.00  0.00    +0.000 A 
ATOM      6  C8  UNL     1      -4.070  -3.015   1.924  0.00  0.00    +0.000 A 
ENDROOT
BRANCH   6   7
ATOM      7  C9  UNL     1      -3.512  -3.424   3.241  0.00  0.00    +0.000 C 
ATOM      8  O3  UNL     1      -2.505  -2.844   3.727  0.00  0.00    +0.000 OA
BRANCH   7   9
ATOM      9  O4  UNL     1      -4.104  -4.462   3.957  0.00  0.00    +0.000 OA
ATOM     10  H8  UNL     1      -4.699  -4.272   4.754  0.00  0.00    +0.000 HD
ENDBRANCH   7   9
ENDBRANCH   6   7
BRANCH   1  11
ATOM     11  O2  UNL     1      -3.441  -5.140   0.899  0.00  0.00    +0.000 OA
BRANCH  11  13
ATOM     12  C1  UNL     1      -4.346  -7.186  -0.204  0.00  0.00    +0.000 C 
ATOM     13  C2  UNL     1      -4.153  -6.341   1.009  0.00  0.00    +0.000 C 
ATOM     14  O1  UNL     1      -4.715  -6.668   2.089  0.00  0.00    +0.000 OA
ENDBRANCH  11  13
ENDBRANCH   1  11
TORSDOF 4
ENDMDL
MODEL 5
REMARK VINA RESULT:    -3.785     13.847     14.550
REMARK INTER + INTRA:          -5.199
REMARK INTER:                  -4.609
REMARK INTRA:                  -0.591
REMARK UNBOUND:                -0.640
REMARK  Name = results/d2949fdc-d2a8-4405-b932-33f55f7909a2_ligand.pdb
REMARK  5 active torsions:
REMARK  status: ('A' for Active; 'I' for Inactive)
REMARK    1  A    between atoms: C1_1  and  C2_2
REMARK    2  A    between atoms: C2_2  and  O2_4
REMARK    3  A    between atoms: O2_4  and  C3_5
REMARK    4  A    between atoms: C8_10  and  C9_11
REMARK    5  A    between atoms: C9_11  and  O4_13
REMARK                            x       y       z     vdW  Elec       q    Type
REMARK                         _______ _______ _______ _____ _____    ______ ____
ROOT
ATOM      1  C3  UNL     1      -4.055  -4.712   1.125  0.00  0.00    +0.000 A 
ATOM      2  C4  UNL     1      -3.243  -5.849   1.301  0.00  0.00    +0.000 A 
ATOM      3  C5  UNL     1      -2.735  -6.537   0.199  0.00  0.00    +0.000 A 
ATOM      4  C6  UNL     1      -3.036  -6.108  -1.091  0.00  0.00    +0.000 A 
ATOM      5  C7  UNL     1      -3.856  -4.995  -1.286  0.00  0.00    +0.000 A 
ATOM      6  C8  UNL     1      -4.380  -4.286  -0.187  0.00  0.00    +0.000 A 
ENDROOT
BRANCH   6   7
ATOM      7  C9  UNL     1      -5.250  -3.107  -0.440  0.00  0.00    +0.000 C 
ATOM      8  O3  UNL     1      -5.007  -2.313  -1.389  0.00  0.00    +0.000 OA
BRANCH   7   9
ATOM      9  O4  UNL     1      -6.352  -2.865   0.375  0.00  0.00    +0.000 OA
ATOM     10  H8  UNL     1      -6.244  -2.422   1.280  0.00  0.00    +0.000 HD
ENDBRANCH   7   9
ENDBRANCH   6   7
BRANCH   1  11
ATOM     11  O2  UNL     1      -4.581  -4.025   2.233  0.00  0.00    +0.000 OA
BRANCH  11  13
ATOM     12  C1  UNL     1      -2.757  -3.047   3.625  0.00  0.00    +0.000 C 
ATOM     13  C2  UNL     1      -4.010  -2.895   2.831  0.00  0.00    +0.000 C 
ATOM     14  O1  UNL     1      -4.589  -1.776   2.792  0.00  0.00    +0.000 OA
ENDBRANCH  11  13
ENDBRANCH   1  11
TORSDOF 4
ENDMDL
MODEL 6
REMARK VINA RESULT:    -3.727     13.747     15.113
REMARK INTER + INTRA:          -5.129
REMARK INTER:                  -4.494
REMARK INTRA:                  -0.635
REMARK UNBOUND:                -0.640
REMARK  Name = results/d2949fdc-d2a8-4405-b932-33f55f7909a2_ligand.pdb
REMARK  5 active torsions:
REMARK  status: ('A' for Active; 'I' for Inactive)
REMARK    1  A    between atoms: C1_1  and  C2_2
REMARK    2  A    between atoms: C2_2  and  O2_4
REMARK    3  A    between atoms: O2_4  and  C3_5
REMARK    4  A    between atoms: C8_10  and  C9_11
REMARK    5  A    between atoms: C9_11  and  O4_13
REMARK                            x       y       z     vdW  Elec       q    Type
REMARK                         _______ _______ _______ _____ _____    ______ ____
ROOT
ATOM      1  C3  UNL     1      -4.346  -4.093   1.102  0.00  0.00    +0.000 A 
ATOM      2  C4  UNL     1      -3.544  -4.463   2.199  0.00  0.00    +0.000 A 
ATOM      3  C5  UNL     1      -3.263  -3.548   3.214  0.00  0.00    +0.000 A 
ATOM      4  C6  UNL     1      -3.766  -2.252   3.145  0.00  0.00    +0.000 A 
ATOM      5  C7  UNL     1      -4.547  -1.861   2.055  0.00  0.00    +0.000 A 
ATOM      6  C8  UNL     1      -4.842  -2.768   1.019  0.00  0.00    +0.000 A 
ENDROOT
BRANCH   6   7
ATOM      7  C9  UNL     1      -5.676  -2.308  -0.123  0.00  0.00    +0.000 C 
ATOM      8  O3  UNL     1      -6.802  -1.774   0.068  0.00  0.00    +0.000 OA
BRANCH   7   9
ATOM      9  O4  UNL     1      -5.218  -2.464  -1.429  0.00  0.00    +0.000 OA
ATOM     10  H8  UNL     1      -5.788  -2.184  -2.218  0.00  0.00    +0.000 HD
ENDBRANCH   7   9
ENDBRANCH   6   7
BRANCH   1  11
ATOM     11  O2  UNL     1      -4.620  -5.007   0.070  0.00  0.00    +0.000 OA
BRANCH  11  13
ATOM     12  C1  UNL     1      -2.675  -6.448  -0.532  0.00  0.00    +0.000 C 
ATOM     13  C2  UNL     1      -3.705  -5.433  -0.899  0.00  0.00    +0.000 C 
ATOM     14  O1  UNL     1      -3.674  -4.904  -2.043  0.00  0.00    +0.000 OA
ENDBRANCH  11  13
ENDBRANCH   1  11
TORSDOF 4
ENDMDL
MODEL 7
REMARK VINA RESULT:    -3.693      9.917     12.457
REMARK INTER + INTRA:          -5.088
REMARK INTER:                  -4.373
REMARK INTRA:                  -0.715
REMARK UNBOUND:                -0.640
REMARK  Name = results/d2949fdc-d2a8-4405-b932-33f55f7909a2_ligand.pdb
REMARK  5 active torsions:
REMARK  status: ('A' for Active; 'I' for Inactive)
REMARK    1  A    between atoms: C1_1  and  C2_2
REMARK    2  A    between atoms: C2_2  and  O2_4
REMARK    3  A    between atoms: O2_4  and  C3_5
REMARK    4  A    between atoms: C8_10  and  C9_11
REMARK    5  A    between atoms: C9_11  and  O4_13
REMARK                            x       y       z     vdW  Elec       q    Type
REMARK                         _______ _______ _______ _____ _____    ______ ____
ROOT
ATOM      1  C3  UNL     1       4.627  -1.034   7.562  0.00  0.00    +0.000 A 
ATOM      2  C4  UNL     1       4.166  -0.513   6.336  0.00  0.00    +0.000 A 
ATOM      3  C5  UNL     1       3.402   0.654   6.304  0.00  0.00    +0.000 A 
ATOM      4  C6  UNL     1       3.077   1.310   7.488  0.00  0.00    +0.000 A 
ATOM      5  C7  UNL     1       3.508   0.798   8.713  0.00  0.00    +0.000 A 
ATOM      6  C8  UNL     1       4.280  -0.379   8.770  0.00  0.00    +0.000 A 
ENDROOT
BRANCH   6   7
ATOM      7  C9  UNL     1       4.716  -0.890  10.097  0.00  0.00    +0.000 C 
ATOM      8  O3  UNL     1       5.521  -0.235  10.812  0.00  0.00    +0.000 OA
BRANCH   7   9
ATOM      9  O4  UNL     1       4.235  -2.109  10.567  0.00  0.00    +0.000 OA
ATOM     10  H8  UNL     1       4.846  -2.761  11.045  0.00  0.00    +0.000 HD
ENDBRANCH   7   9
ENDBRANCH   6   7
BRANCH   1  11
ATOM     11  O2  UNL     1       5.385  -2.216   7.601  0.00  0.00    +0.000 OA
BRANCH  11  13
ATOM     12  C1  UNL     1       5.328  -4.324   6.269  0.00  0.00    +0.000 C 
ATOM     13  C2  UNL     1       4.877  -3.510   7.434  0.00  0.00    +0.000 C 
ATOM     14  O1  UNL     1       3.976  -3.958   8.194  0.00  0.00    +0.000 OA
ENDBRANCH  11  13
ENDBRANCH   1  11
TORSDOF 4
ENDMDL
MODEL 8
REMARK VINA RESULT:    -3.573      7.732     10.306
REMARK INTER + INTRA:          -4.944
REMARK INTER:                  -4.456
REMARK INTRA:                  -0.488
REMARK UNBOUND:                -0.640
REMARK  Name = results/d2949fdc-d2a8-4405-b932-33f55f7909a2_ligand.pdb
REMARK  5 active torsions:
REMARK  status: ('A' for Active; 'I' for Inactive)
REMARK    1  A    between atoms: C1_1  and  C2_2
REMARK    2  A    between atoms: C2_2  and  O2_4
REMARK    3  A    between atoms: O2_4  and  C3_5
REMARK    4  A    between atoms: C8_10  and  C9_11
REMARK    5  A    between atoms: C9_11  and  O4_13
REMARK                            x       y       z     vdW  Elec       q    Type
REMARK                         _______ _______ _______ _____ _____    ______ ____
ROOT
ATOM      1  C3  UNL     1       6.230  -1.877   6.652  0.00  0.00    +0.000 A 
ATOM      2  C4  UNL     1       6.619  -0.620   6.150  0.00  0.00    +0.000 A 
ATOM      3  C5  UNL     1       5.678   0.394   5.967  0.00  0.00    +0.000 A 
ATOM      4  C6  UNL     1       4.339   0.167   6.270  0.00  0.00    +0.000 A 
ATOM      5  C7  UNL     1       3.931  -1.079   6.750  0.00  0.00    +0.000 A 
ATOM      6  C8  UNL     1       4.863  -2.117   6.942  0.00  0.00    +0.000 A 
ENDROOT
BRANCH   6   7
ATOM      7  C9  UNL     1       4.385  -3.429   7.453  0.00  0.00    +0.000 C 
ATOM      8  O3  UNL     1       4.011  -3.561   8.650  0.00  0.00    +0.000 OA
BRANCH   7   9
ATOM      9  O4  UNL     1       4.344  -4.534   6.608  0.00  0.00    +0.000 OA
ATOM     10  H8  UNL     1       4.135  -5.458   6.968  0.00  0.00    +0.000 HD
ENDBRANCH   7   9
ENDBRANCH   6   7
BRANCH   1  11
ATOM     11  O2  UNL     1       7.171  -2.906   6.825  0.00  0.00    +0.000 OA
BRANCH  11  13
ATOM     12  C1  UNL     1       7.241  -4.435   4.856  0.00  0.00    +0.000 C 
ATOM     13  C2  UNL     1       7.917  -3.501   5.802  0.00  0.00    +0.000 C 
ATOM     14  O1  UNL     1       9.166  -3.340   5.728  0.00  0.00    +0.000 OA
ENDBRANCH  11  13
ENDBRANCH   1  11
TORSDOF 4
ENDMDL
MODEL 9
REMARK VINA RESULT:    -3.482      1.778      2.588
REMARK INTER + INTRA:          -4.834
REMARK INTER:                  -4.277
REMARK INTRA:                  -0.557
REMARK UNBOUND:                -0.640
REMARK  Name = results/d2949fdc-d2a8-4405-b932-33f55f7909a2_ligand.pdb
REMARK  5 active torsions:
REMARK  status: ('A' for Active; 'I' for Inactive)
REMARK    1  A    between atoms: C1_1  and  C2_2
REMARK    2  A    between atoms: C2_2  and  O2_4
REMARK    3  A    between atoms: O2_4  and  C3_5
REMARK    4  A    between atoms: C8_10  and  C9_11
REMARK    5  A    between atoms: C9_11  and  O4_13
REMARK                            x       y       z     vdW  Elec       q    Type
REMARK                         _______ _______ _______ _____ _____    ______ ____
ROOT
ATOM      1  C3  UNL     1       9.952  -4.483  -0.465  0.00  0.00    +0.000 A 
ATOM      2  C4  UNL     1       9.689  -4.302   0.907  0.00  0.00    +0.000 A 
ATOM      3  C5  UNL     1       8.799  -5.142   1.576  0.00  0.00    +0.000 A 
ATOM      4  C6  UNL     1       8.151  -6.164   0.888  0.00  0.00    +0.000 A 
ATOM      5  C7  UNL     1       8.385  -6.347  -0.476  0.00  0.00    +0.000 A 
ATOM      6  C8  UNL     1       9.279  -5.511  -1.172  0.00  0.00    +0.000 A 
ENDROOT
BRANCH   6   7
ATOM      7  C9  UNL     1       9.496  -5.740  -2.625  0.00  0.00    +0.000 C 
ATOM      8  O3  UNL     1       8.542  -6.071  -3.379  0.00  0.00    +0.000 OA
BRANCH   7   9
ATOM      9  O4  UNL     1      10.768  -5.590  -3.173  0.00  0.00    +0.000 OA
ATOM     10  H8  UNL     1      11.587  -5.528  -2.580  0.00  0.00    +0.000 HD
ENDBRANCH   7   9
ENDBRANCH   6   7
BRANCH   1  11
ATOM     11  O2  UNL     1      10.838  -3.631  -1.147  0.00  0.00    +0.000 OA
BRANCH  11  13
ATOM     12  C1  UNL     1       9.754  -1.386  -1.225  0.00  0.00    +0.000 C 
ATOM     13  C2  UNL     1      10.466  -2.510  -1.898  0.00  0.00    +0.000 C 
ATOM     14  O1  UNL     1      10.634  -2.479  -3.147  0.00  0.00    +0.000 OA
ENDBRANCH  11  13
ENDBRANCH   1  11
TORSDOF 4
ENDMDL
