MODEL 1
REMARK VINA RESULT:    -2.940      0.000      0.000
REMARK INTER + INTRA:          -3.612
REMARK INTER:                  -3.456
REMARK INTRA:                  -0.156
REMARK UNBOUND:                -0.156
REMARK  Name = C:\DDRIVE\PROJECT\authml\backend\results\ligand_1764478796599.pdb
REMARK  6 active torsions:
REMARK  status: ('A' for Active; 'I' for Inactive)
REMARK    1  A    between atoms: C_1  and  C_2
REMARK    2  A    between atoms: C_2  and  N_3
REMARK    3  A    between atoms: N_3  and  C_4
REMARK    4  A    between atoms: N_3  and  C_6
REMARK    5  A    between atoms: C_4  and  C_5
REMARK    6  A    between atoms: C_6  and  C_7
REMARK                            x       y       z     vdW  Elec       q    Type
REMARK                         _______ _______ _______ _____ _____    ______ ____
ROOT
ATOM      1  N   UNL     1      -4.512  -3.270   2.175  0.00  0.00    +0.000 NA
ENDROOT
BRANCH   1   3
ATOM      2  C   UNL     1      -2.630  -2.893   3.776  0.00  0.00    +0.000 C 
ATOM      3  C   UNL     1      -3.654  -3.871   3.209  0.00  0.00    +0.000 C 
ENDBRANCH   1   3
BRANCH   1   4
ATOM      4  C   UNL     1      -4.656  -1.806   2.291  0.00  0.00    +0.000 C 
ATOM      5  C   UNL     1      -5.964  -1.288   2.882  0.00  0.00    +0.000 C 
ENDBRANCH   1   4
BRANCH   1   6
ATOM      6  C   UNL     1      -4.125  -3.665   0.812  0.00  0.00    +0.000 C 
ATOM      7  C   UNL     1      -3.528  -5.070   0.745  0.00  0.00    +0.000 C 
ENDBRANCH   1   6
TORSDOF 3
ENDMDL
MODEL 2
REMARK VINA RESULT:    -2.931      0.121      3.244
REMARK INTER + INTRA:          -3.601
REMARK INTER:                  -3.445
REMARK INTRA:                  -0.155
REMARK UNBOUND:                -0.156
REMARK  Name = C:\DDRIVE\PROJECT\authml\backend\results\ligand_1764478796599.pdb
REMARK  6 active torsions:
REMARK  status: ('A' for Active; 'I' for Inactive)
REMARK    1  A    between atoms: C_1  and  C_2
REMARK    2  A    between atoms: C_2  and  N_3
REMARK    3  A    between atoms: N_3  and  C_4
REMARK    4  A    between atoms: N_3  and  C_6
REMARK    5  A    between atoms: C_4  and  C_5
REMARK    6  A    between atoms: C_6  and  C_7
REMARK                            x       y       z     vdW  Elec       q    Type
REMARK                         _______ _______ _______ _____ _____    ______ ____
ROOT
ATOM      1  N   UNL     1      -4.450  -3.271   2.211  0.00  0.00    +0.000 NA
ENDROOT
BRANCH   1   3
ATOM      2  C   UNL     1      -5.951  -1.367   2.819  0.00  0.00    +0.000 C 
ATOM      3  C   UNL     1      -4.594  -1.808   2.281  0.00  0.00    +0.000 C 
ENDBRANCH   1   3
BRANCH   1   4
ATOM      4  C   UNL     1      -4.000  -3.766   0.896  0.00  0.00    +0.000 C 
ATOM      5  C   UNL     1      -3.497  -5.207   0.839  0.00  0.00    +0.000 C 
ENDBRANCH   1   4
BRANCH   1   6
ATOM      6  C   UNL     1      -3.625  -3.816   3.300  0.00  0.00    +0.000 C 
ATOM      7  C   UNL     1      -2.543  -2.846   3.771  0.00  0.00    +0.000 C 
ENDBRANCH   1   6
TORSDOF 3
ENDMDL
MODEL 3
REMARK VINA RESULT:    -2.930      0.143      3.217
REMARK INTER + INTRA:          -3.600
REMARK INTER:                  -3.447
REMARK INTRA:                  -0.153
REMARK UNBOUND:                -0.156
REMARK  Name = C:\DDRIVE\PROJECT\authml\backend\results\ligand_1764478796599.pdb
REMARK  6 active torsions:
REMARK  status: ('A' for Active; 'I' for Inactive)
REMARK    1  A    between atoms: C_1  and  C_2
REMARK    2  A    between atoms: C_2  and  N_3
REMARK    3  A    between atoms: N_3  and  C_4
REMARK    4  A    between atoms: N_3  and  C_6
REMARK    5  A    between atoms: C_4  and  C_5
REMARK    6  A    between atoms: C_6  and  C_7
REMARK                            x       y       z     vdW  Elec       q    Type
REMARK                         _______ _______ _______ _____ _____    ______ ____
ROOT
ATOM      1  N   UNL     1      -4.550  -3.191   2.255  0.00  0.00    +0.000 NA
ENDROOT
BRANCH   1   3
ATOM      2  C   UNL     1      -3.579  -4.950   0.768  0.00  0.00    +0.000 C 
ATOM      3  C   UNL     1      -4.244  -3.582   0.870  0.00  0.00    +0.000 C 
ENDBRANCH   1   3
BRANCH   1   4
ATOM      4  C   UNL     1      -3.641  -3.778   3.258  0.00  0.00    +0.000 C 
ATOM      5  C   UNL     1      -2.552  -2.866   3.817  0.00  0.00    +0.000 C 
ENDBRANCH   1   4
BRANCH   1   6
ATOM      6  C   UNL     1      -4.668  -1.735   2.425  0.00  0.00    +0.000 C 
ATOM      7  C   UNL     1      -6.097  -1.282   2.719  0.00  0.00    +0.000 C 
ENDBRANCH   1   6
TORSDOF 3
ENDMDL
MODEL 4
REMARK VINA RESULT:    -2.888      0.581      2.968
REMARK INTER + INTRA:          -3.550
REMARK INTER:                  -3.403
REMARK INTRA:                  -0.147
REMARK UNBOUND:                -0.156
REMARK  Name = C:\DDRIVE\PROJECT\authml\backend\results\ligand_1764478796599.pdb
REMARK  6 active torsions:
REMARK  status: ('A' for Active; 'I' for Inactive)
REMARK    1  A    between atoms: C_1  and  C_2
REMARK    2  A    between atoms: C_2  and  N_3
REMARK    3  A    between atoms: N_3  and  C_4
REMARK    4  A    between atoms: N_3  and  C_6
REMARK    5  A    between atoms: C_4  and  C_5
REMARK    6  A    between atoms: C_6  and  C_7
REMARK                            x       y       z     vdW  Elec       q    Type
REMARK                         _______ _______ _______ _____ _____    ______ ____
ROOT
ATOM      1  N   UNL     1      -4.282  -3.078   1.998  0.00  0.00    +0.000 NA
ENDROOT
BRANCH   1   3
ATOM      2  C   UNL     1      -2.574  -2.890   3.812  0.00  0.00    +0.000 C 
ATOM      3  C   UNL     1      -3.455  -3.808   2.972  0.00  0.00    +0.000 C 
ENDBRANCH   1   3
BRANCH   1   4
ATOM      4  C   UNL     1      -4.319  -3.697   0.659  0.00  0.00    +0.000 C 
ATOM      5  C   UNL     1      -3.555  -5.007   0.486  0.00  0.00    +0.000 C 
ENDBRANCH   1   4
BRANCH   1   6
ATOM      6  C   UNL     1      -5.638  -2.798   2.496  0.00  0.00    +0.000 C 
ATOM      7  C   UNL     1      -5.850  -1.328   2.853  0.00  0.00    +0.000 C 
ENDBRANCH   1   6
TORSDOF 3
ENDMDL
MODEL 5
REMARK VINA RESULT:    -2.857      0.637      2.555
REMARK INTER + INTRA:          -3.514
REMARK INTER:                  -3.366
REMARK INTRA:                  -0.148
REMARK UNBOUND:                -0.156
REMARK  Name = C:\DDRIVE\PROJECT\authml\backend\results\ligand_1764478796599.pdb
REMARK  6 active torsions:
REMARK  status: ('A' for Active; 'I' for Inactive)
REMARK    1  A    between atoms: C_1  and  C_2
REMARK    2  A    between atoms: C_2  and  N_3
REMARK    3  A    between atoms: N_3  and  C_4
REMARK    4  A    between atoms: N_3  and  C_6
REMARK    5  A    between atoms: C_4  and  C_5
REMARK    6  A    between atoms: C_6  and  C_7
REMARK                            x       y       z     vdW  Elec       q    Type
REMARK                         _______ _______ _______ _____ _____    ______ ____
ROOT
ATOM      1  N   UNL     1      -4.255  -2.939   1.955  0.00  0.00    +0.000 NA
ENDROOT
BRANCH   1   3
ATOM      2  C   UNL     1      -3.757  -4.813   0.379  0.00  0.00    +0.000 C 
ATOM      3  C   UNL     1      -4.471  -3.485   0.606  0.00  0.00    +0.000 C 
ENDBRANCH   1   3
BRANCH   1   4
ATOM      4  C   UNL     1      -5.497  -2.733   2.724  0.00  0.00    +0.000 C 
ATOM      5  C   UNL     1      -5.980  -1.293   2.880  0.00  0.00    +0.000 C 
ENDBRANCH   1   4
BRANCH   1   6
ATOM      6  C   UNL     1      -3.266  -3.704   2.730  0.00  0.00    +0.000 C 
ATOM      7  C   UNL     1      -2.612  -2.882   3.839  0.00  0.00    +0.000 C 
ENDBRANCH   1   6
TORSDOF 3
ENDMDL
MODEL 6
REMARK VINA RESULT:    -2.846      0.594      2.419
REMARK INTER + INTRA:          -3.501
REMARK INTER:                  -3.350
REMARK INTRA:                  -0.151
REMARK UNBOUND:                -0.156
REMARK  Name = C:\DDRIVE\PROJECT\authml\backend\results\ligand_1764478796599.pdb
REMARK  6 active torsions:
REMARK  status: ('A' for Active; 'I' for Inactive)
REMARK    1  A    between atoms: C_1  and  C_2
REMARK    2  A    between atoms: C_2  and  N_3
REMARK    3  A    between atoms: N_3  and  C_4
REMARK    4  A    between atoms: N_3  and  C_6
REMARK    5  A    between atoms: C_4  and  C_5
REMARK    6  A    between atoms: C_6  and  C_7
REMARK                            x       y       z     vdW  Elec       q    Type
REMARK                         _______ _______ _______ _____ _____    ______ ____
ROOT
ATOM      1  N   UNL     1      -4.253  -3.117   1.921  0.00  0.00    +0.000 NA
ENDROOT
BRANCH   1   3
ATOM      2  C   UNL     1      -5.836  -1.393   2.799  0.00  0.00    +0.000 C 
ATOM      3  C   UNL     1      -5.662  -2.715   2.058  0.00  0.00    +0.000 C 
ENDBRANCH   1   3
BRANCH   1   4
ATOM      4  C   UNL     1      -3.673  -3.696   3.148  0.00  0.00    +0.000 C 
ATOM      5  C   UNL     1      -2.570  -2.893   3.833  0.00  0.00    +0.000 C 
ENDBRANCH   1   4
BRANCH   1   6
ATOM      6  C   UNL     1      -4.017  -3.984   0.756  0.00  0.00    +0.000 C 
ATOM      7  C   UNL     1      -3.418  -5.338   1.132  0.00  0.00    +0.000 C 
ENDBRANCH   1   6
TORSDOF 3
ENDMDL
MODEL 7
REMARK VINA RESULT:    -2.761      1.239      3.000
REMARK INTER + INTRA:          -3.401
REMARK INTER:                  -3.260
REMARK INTRA:                  -0.141
REMARK UNBOUND:                -0.156
REMARK  Name = C:\DDRIVE\PROJECT\authml\backend\results\ligand_1764478796599.pdb
REMARK  6 active torsions:
REMARK  status: ('A' for Active; 'I' for Inactive)
REMARK    1  A    between atoms: C_1  and  C_2
REMARK    2  A    between atoms: C_2  and  N_3
REMARK    3  A    between atoms: N_3  and  C_4
REMARK    4  A    between atoms: N_3  and  C_6
REMARK    5  A    between atoms: C_4  and  C_5
REMARK    6  A    between atoms: C_6  and  C_7
REMARK                            x       y       z     vdW  Elec       q    Type
REMARK                         _______ _______ _______ _____ _____    ______ ____
ROOT
ATOM      1  N   UNL     1      -3.804  -3.534   1.589  0.00  0.00    +0.000 NA
ENDROOT
BRANCH   1   3
ATOM      2  C   UNL     1      -2.682  -2.965   3.749  0.00  0.00    +0.000 C 
ATOM      3  C   UNL     1      -3.965  -2.938   2.925  0.00  0.00    +0.000 C 
ENDBRANCH   1   3
BRANCH   1   4
ATOM      4  C   UNL     1      -3.963  -5.001   1.565  0.00  0.00    +0.000 C 
ATOM      5  C   UNL     1      -3.132  -5.767   0.539  0.00  0.00    +0.000 C 
ENDBRANCH   1   4
BRANCH   1   6
ATOM      6  C   UNL     1      -4.644  -2.887   0.570  0.00  0.00    +0.000 C 
ATOM      7  C   UNL     1      -4.955  -1.426   0.893  0.00  0.00    +0.000 C 
ENDBRANCH   1   6
TORSDOF 3
ENDMDL
MODEL 8
REMARK VINA RESULT:    -2.719      1.608      2.864
REMARK INTER + INTRA:          -3.351
REMARK INTER:                  -3.243
REMARK INTRA:                  -0.109
REMARK UNBOUND:                -0.156
REMARK  Name = C:\DDRIVE\PROJECT\authml\backend\results\ligand_1764478796599.pdb
REMARK  6 active torsions:
REMARK  status: ('A' for Active; 'I' for Inactive)
REMARK    1  A    between atoms: C_1  and  C_2
REMARK    2  A    between atoms: C_2  and  N_3
REMARK    3  A    between atoms: N_3  and  C_4
REMARK    4  A    between atoms: N_3  and  C_6
REMARK    5  A    between atoms: C_4  and  C_5
REMARK    6  A    between atoms: C_6  and  C_7
REMARK                            x       y       z     vdW  Elec       q    Type
REMARK                         _______ _______ _______ _____ _____    ______ ____
ROOT
ATOM      1  N   UNL     1      -3.638  -4.784   1.908  0.00  0.00    +0.000 NA
ENDROOT
BRANCH   1   3
ATOM      2  C   UNL     1      -4.869  -3.017   0.639  0.00  0.00    +0.000 C 
ATOM      3  C   UNL     1      -3.872  -4.170   0.591  0.00  0.00    +0.000 C 
ENDBRANCH   1   3
BRANCH   1   4
ATOM      4  C   UNL     1      -3.942  -3.896   3.046  0.00  0.00    +0.000 C 
ATOM      5  C   UNL     1      -2.773  -3.116   3.642  0.00  0.00    +0.000 C 
ENDBRANCH   1   4
BRANCH   1   6
ATOM      6  C   UNL     1      -4.300  -6.090   2.055  0.00  0.00    +0.000 C 
ATOM      7  C   UNL     1      -3.445  -7.251   1.550  0.00  0.00    +0.000 C 
ENDBRANCH   1   6
TORSDOF 3
ENDMDL
MODEL 9
REMARK VINA RESULT:    -2.634      1.673      3.192
REMARK INTER + INTRA:          -3.252
REMARK INTER:                  -3.124
REMARK INTRA:                  -0.128
REMARK UNBOUND:                -0.156
REMARK  Name = C:\DDRIVE\PROJECT\authml\backend\results\ligand_1764478796599.pdb
REMARK  6 active torsions:
REMARK  status: ('A' for Active; 'I' for Inactive)
REMARK    1  A    between atoms: C_1  and  C_2
REMARK    2  A    between atoms: C_2  and  N_3
REMARK    3  A    between atoms: N_3  and  C_4
REMARK    4  A    between atoms: N_3  and  C_6
REMARK    5  A    between atoms: C_4  and  C_5
REMARK    6  A    between atoms: C_6  and  C_7
REMARK                            x       y       z     vdW  Elec       q    Type
REMARK                         _______ _______ _______ _____ _____    ______ ____
ROOT
ATOM      1  N   UNL     1      -3.921  -4.882   2.432  0.00  0.00    +0.000 NA
ENDROOT
BRANCH   1   3
ATOM      2  C   UNL     1      -3.278  -7.017   1.302  0.00  0.00    +0.000 C 
ATOM      3  C   UNL     1      -3.489  -5.512   1.173  0.00  0.00    +0.000 C 
ENDBRANCH   1   3
BRANCH   1   4
ATOM      4  C   UNL     1      -3.589  -3.448   2.528  0.00  0.00    +0.000 C 
ATOM      5  C   UNL     1      -2.676  -3.028   3.677  0.00  0.00    +0.000 C 
ENDBRANCH   1   4
BRANCH   1   6
ATOM      6  C   UNL     1      -5.340  -5.126   2.735  0.00  0.00    +0.000 C 
ATOM      7  C   UNL     1      -6.191  -3.860   2.660  0.00  0.00    +0.000 C 
ENDBRANCH   1   6
TORSDOF 3
ENDMDL
