MODEL 1
REMARK VINA RESULT:    -6.894      0.000      0.000
REMARK INTER + INTRA:          -9.076
REMARK INTER:                  -8.506
REMARK INTRA:                  -0.570
REMARK UNBOUND:                -0.570
REMARK  Name = C:\Users\Bellamkonda Sowmya\OneDrive\Desktop\LIGBIND AI\authml\authml\backend\results\ligand_1764954426385.pdb
REMARK  4 active torsions:
REMARK  status: ('A' for Active; 'I' for Inactive)
REMARK    1  A    between atoms: S_2  and  N_4
REMARK    2  A    between atoms: S_2  and  C_21
REMARK    3  A    between atoms: N_4  and  C_5
REMARK    4  A    between atoms: C_9  and  C_10
REMARK                            x       y       z     vdW  Elec       q    Type
REMARK                         _______ _______ _______ _____ _____    ______ ____
ROOT
ATOM      1  C   UNL     1      -2.678  -6.551  -0.782  0.00  0.00    +0.000 A 
ATOM      2  C   UNL     1      -3.017  -7.861  -1.165  0.00  0.00    +0.000 A 
ATOM      3  C   UNL     1      -3.203  -8.188  -2.500  0.00  0.00    +0.000 A 
ATOM      4  C   UNL     1      -3.067  -7.218  -3.468  0.00  0.00    +0.000 A 
ATOM      5  C   UNL     1      -2.707  -5.978  -3.100  0.00  0.00    +0.000 A 
ATOM      6  C   UNL     1      -2.562  -5.959  -1.967  0.00  0.00    +0.000 A 
ENDROOT
BRANCH   5   7
ATOM      7  C   UNL     1      -2.522  -4.796  -4.037  0.00  0.00    +0.000 A 
ATOM      8  C   UNL     1      -0.079  -6.132  -8.548  0.00  0.00    +0.000 A 
ATOM      9  N   UNL     1      -0.790  -5.801  -7.396  0.00  0.00    +0.000 NA
ATOM     10  C   UNL     1      -1.052  -4.466  -7.098  0.00  0.00    +0.000 A 
ATOM     11  C   UNL     1      -0.697  -3.306  -7.809  0.00  0.00    +0.000 A 
ATOM     12  C   UNL     1      -1.108  -2.052  -7.380  0.00  0.00    +0.000 A 
ATOM     13  C   UNL     1      -1.887  -1.937  -6.250  0.00  0.00    +0.000 A 
ATOM     14  C   UNL     1      -2.191  -3.043  -5.553  0.00  0.00    +0.000 A 
ATOM     15  C   UNL     1      -1.704  -3.943  -6.064  0.00  0.00    +0.000 A 
ATOM     16  N   UNL     1      -1.864  -4.966  -5.253  0.00  0.00    +0.000 NA
ENDBRANCH   5   7
BRANCH   1  17
ATOM     17  N   UNL     1      -2.614  -6.003   0.582  0.00  0.00    +0.000 N 
ATOM     18  H   UNL     1      -1.720  -5.949   1.068  0.00  0.00    +0.000 HD
BRANCH  17  20
ATOM     19  O   UNL     1      -5.136  -5.106   0.315  0.00  0.00    +0.000 OA
ATOM     20  S   UNL     1      -4.082  -5.440   1.374  0.00  0.00    +0.000 S 
ATOM     21  O   UNL     1      -4.616  -6.536   2.297  0.00  0.00    +0.000 OA
BRANCH  20  22
ATOM     22  C   UNL     1      -3.714  -3.958   2.346  0.00  0.00    +0.000 A 
ATOM     23  C   UNL     1      -3.998  -2.547   2.977  0.00  0.00    +0.000 A 
ATOM     24  C   UNL     1      -2.711  -2.971   3.713  0.00  0.00    +0.000 A 
ATOM     25  C   UNL     1      -2.711  -2.971   3.713  0.00  0.00    +0.000 A 
ATOM     26  S   UNL     1      -2.711  -2.971   3.713  0.00  0.00    +0.000 S 
ENDBRANCH  20  22
ENDBRANCH  17  20
ENDBRANCH   1  17
TORSDOF 4
ENDMDL
