MODEL 1
REMARK VINA RESULT:    -2.946      0.000      0.000
REMARK INTER + INTRA:          -3.618
REMARK INTER:                  -3.462
REMARK INTRA:                  -0.155
REMARK UNBOUND:                -0.155
REMARK  Name = C:\DDRIVE\PROJECT\rmpr\authml\backend\results\ligand_1764487372018.pdb
REMARK  6 active torsions:
REMARK  status: ('A' for Active; 'I' for Inactive)
REMARK    1  A    between atoms: C_1  and  C_2
REMARK    2  A    between atoms: C_2  and  N_3
REMARK    3  A    between atoms: N_3  and  C_4
REMARK    4  A    between atoms: N_3  and  C_6
REMARK    5  A    between atoms: C_4  and  C_5
REMARK    6  A    between atoms: C_6  and  C_7
REMARK                            x       y       z     vdW  Elec       q    Type
REMARK                         _______ _______ _______ _____ _____    ______ ____
ROOT
ATOM      1  N   UNL     1      -4.534  -3.201   2.211  0.00  0.00    +0.000 NA
ENDROOT
BRANCH   1   3
ATOM      2  C   UNL     1      -6.031  -1.288   2.819  0.00  0.00    +0.000 C 
ATOM      3  C   UNL     1      -4.635  -1.746   2.404  0.00  0.00    +0.000 C 
ENDBRANCH   1   3
BRANCH   1   4
ATOM      4  C   UNL     1      -4.156  -3.601   0.844  0.00  0.00    +0.000 C 
ATOM      5  C   UNL     1      -3.534  -4.984   0.683  0.00  0.00    +0.000 C 
ENDBRANCH   1   4
BRANCH   1   6
ATOM      6  C   UNL     1      -3.672  -3.844   3.214  0.00  0.00    +0.000 C 
ATOM      7  C   UNL     1      -2.601  -2.906   3.769  0.00  0.00    +0.000 C 
ENDBRANCH   1   6
TORSDOF 3
ENDMDL
MODEL 2
REMARK VINA RESULT:    -2.938      0.141      3.230
REMARK INTER + INTRA:          -3.609
REMARK INTER:                  -3.457
REMARK INTRA:                  -0.152
REMARK UNBOUND:                -0.155
REMARK  Name = C:\DDRIVE\PROJECT\rmpr\authml\backend\results\ligand_1764487372018.pdb
REMARK  6 active torsions:
REMARK  status: ('A' for Active; 'I' for Inactive)
REMARK    1  A    between atoms: C_1  and  C_2
REMARK    2  A    between atoms: C_2  and  N_3
REMARK    3  A    between atoms: N_3  and  C_4
REMARK    4  A    between atoms: N_3  and  C_6
REMARK    5  A    between atoms: C_4  and  C_5
REMARK    6  A    between atoms: C_6  and  C_7
REMARK                            x       y       z     vdW  Elec       q    Type
REMARK                         _______ _______ _______ _____ _____    ______ ____
ROOT
ATOM      1  N   UNL     1      -4.480  -3.273   2.103  0.00  0.00    +0.000 NA
ENDROOT
BRANCH   1   3
ATOM      2  C   UNL     1      -2.634  -2.919   3.755  0.00  0.00    +0.000 C 
ATOM      3  C   UNL     1      -3.562  -3.910   3.058  0.00  0.00    +0.000 C 
ENDBRANCH   1   3
BRANCH   1   4
ATOM      4  C   UNL     1      -4.607  -1.814   2.274  0.00  0.00    +0.000 C 
ATOM      5  C   UNL     1      -5.907  -1.307   2.889  0.00  0.00    +0.000 C 
ENDBRANCH   1   4
BRANCH   1   6
ATOM      6  C   UNL     1      -4.175  -3.623   0.707  0.00  0.00    +0.000 C 
ATOM      7  C   UNL     1      -3.554  -5.011   0.563  0.00  0.00    +0.000 C 
ENDBRANCH   1   6
TORSDOF 3
ENDMDL
MODEL 3
REMARK VINA RESULT:    -2.918      0.260      3.255
REMARK INTER + INTRA:          -3.585
REMARK INTER:                  -3.433
REMARK INTRA:                  -0.151
REMARK UNBOUND:                -0.155
REMARK  Name = C:\DDRIVE\PROJECT\rmpr\authml\backend\results\ligand_1764487372018.pdb
REMARK  6 active torsions:
REMARK  status: ('A' for Active; 'I' for Inactive)
REMARK    1  A    between atoms: C_1  and  C_2
REMARK    2  A    between atoms: C_2  and  N_3
REMARK    3  A    between atoms: N_3  and  C_4
REMARK    4  A    between atoms: N_3  and  C_6
REMARK    5  A    between atoms: C_4  and  C_5
REMARK    6  A    between atoms: C_6  and  C_7
REMARK                            x       y       z     vdW  Elec       q    Type
REMARK                         _______ _______ _______ _____ _____    ______ ____
ROOT
ATOM      1  N   UNL     1      -4.512  -3.325   2.122  0.00  0.00    +0.000 NA
ENDROOT
BRANCH   1   3
ATOM      2  C   UNL     1      -3.482  -5.298   0.976  0.00  0.00    +0.000 C 
ATOM      3  C   UNL     1      -3.992  -3.864   0.856  0.00  0.00    +0.000 C 
ENDBRANCH   1   3
BRANCH   1   4
ATOM      4  C   UNL     1      -3.775  -3.777   3.316  0.00  0.00    +0.000 C 
ATOM      5  C   UNL     1      -2.588  -2.925   3.751  0.00  0.00    +0.000 C 
ENDBRANCH   1   4
BRANCH   1   6
ATOM      6  C   UNL     1      -4.645  -1.860   2.098  0.00  0.00    +0.000 C 
ATOM      7  C   UNL     1      -5.871  -1.360   2.860  0.00  0.00    +0.000 C 
ENDBRANCH   1   6
TORSDOF 3
ENDMDL
MODEL 4
REMARK VINA RESULT:    -2.871      0.619      2.543
REMARK INTER + INTRA:          -3.530
REMARK INTER:                  -3.382
REMARK INTRA:                  -0.148
REMARK UNBOUND:                -0.155
REMARK  Name = C:\DDRIVE\PROJECT\rmpr\authml\backend\results\ligand_1764487372018.pdb
REMARK  6 active torsions:
REMARK  status: ('A' for Active; 'I' for Inactive)
REMARK    1  A    between atoms: C_1  and  C_2
REMARK    2  A    between atoms: C_2  and  N_3
REMARK    3  A    between atoms: N_3  and  C_4
REMARK    4  A    between atoms: N_3  and  C_6
REMARK    5  A    between atoms: C_4  and  C_5
REMARK    6  A    between atoms: C_6  and  C_7
REMARK                            x       y       z     vdW  Elec       q    Type
REMARK                         _______ _______ _______ _____ _____    ______ ____
ROOT
ATOM      1  N   UNL     1      -4.256  -3.013   1.951  0.00  0.00    +0.000 NA
ENDROOT
BRANCH   1   3
ATOM      2  C   UNL     1      -5.869  -1.319   2.842  0.00  0.00    +0.000 C 
ATOM      3  C   UNL     1      -5.558  -2.794   2.599  0.00  0.00    +0.000 C 
ENDBRANCH   1   3
BRANCH   1   4
ATOM      4  C   UNL     1      -3.266  -3.691   2.807  0.00  0.00    +0.000 C 
ATOM      5  C   UNL     1      -2.605  -2.846   3.890  0.00  0.00    +0.000 C 
ENDBRANCH   1   4
BRANCH   1   6
ATOM      6  C   UNL     1      -4.381  -3.681   0.646  0.00  0.00    +0.000 C 
ATOM      7  C   UNL     1      -3.601  -4.992   0.571  0.00  0.00    +0.000 C 
ENDBRANCH   1   6
TORSDOF 3
ENDMDL
MODEL 5
REMARK VINA RESULT:    -2.867      0.587      2.476
REMARK INTER + INTRA:          -3.526
REMARK INTER:                  -3.374
REMARK INTRA:                  -0.152
REMARK UNBOUND:                -0.155
REMARK  Name = C:\DDRIVE\PROJECT\rmpr\authml\backend\results\ligand_1764487372018.pdb
REMARK  6 active torsions:
REMARK  status: ('A' for Active; 'I' for Inactive)
REMARK    1  A    between atoms: C_1  and  C_2
REMARK    2  A    between atoms: C_2  and  N_3
REMARK    3  A    between atoms: N_3  and  C_4
REMARK    4  A    between atoms: N_3  and  C_6
REMARK    5  A    between atoms: C_4  and  C_5
REMARK    6  A    between atoms: C_6  and  C_7
REMARK                            x       y       z     vdW  Elec       q    Type
REMARK                         _______ _______ _______ _____ _____    ______ ____
ROOT
ATOM      1  N   UNL     1      -4.351  -2.966   2.134  0.00  0.00    +0.000 NA
ENDROOT
BRANCH   1   3
ATOM      2  C   UNL     1      -2.534  -2.848   3.851  0.00  0.00    +0.000 C 
ATOM      3  C   UNL     1      -3.608  -3.694   3.173  0.00  0.00    +0.000 C 
ENDBRANCH   1   3
BRANCH   1   4
ATOM      4  C   UNL     1      -4.238  -3.557   0.788  0.00  0.00    +0.000 C 
ATOM      5  C   UNL     1      -3.621  -4.948   0.702  0.00  0.00    +0.000 C 
ENDBRANCH   1   4
BRANCH   1   6
ATOM      6  C   UNL     1      -5.758  -2.738   2.501  0.00  0.00    +0.000 C 
ATOM      7  C   UNL     1      -6.062  -1.274   2.816  0.00  0.00    +0.000 C 
ENDBRANCH   1   6
TORSDOF 3
ENDMDL
MODEL 6
REMARK VINA RESULT:    -2.766      1.310      3.179
REMARK INTER + INTRA:          -3.407
REMARK INTER:                  -3.299
REMARK INTRA:                  -0.107
REMARK UNBOUND:                -0.155
REMARK  Name = C:\DDRIVE\PROJECT\rmpr\authml\backend\results\ligand_1764487372018.pdb
REMARK  6 active torsions:
REMARK  status: ('A' for Active; 'I' for Inactive)
REMARK    1  A    between atoms: C_1  and  C_2
REMARK    2  A    between atoms: C_2  and  N_3
REMARK    3  A    between atoms: N_3  and  C_4
REMARK    4  A    between atoms: N_3  and  C_6
REMARK    5  A    between atoms: C_4  and  C_5
REMARK    6  A    between atoms: C_6  and  C_7
REMARK                            x       y       z     vdW  Elec       q    Type
REMARK                         _______ _______ _______ _____ _____    ______ ____
ROOT
ATOM      1  N   UNL     1      -3.561  -4.235   1.628  0.00  0.00    +0.000 NA
ENDROOT
BRANCH   1   3
ATOM      2  C   UNL     1      -2.865  -6.336   0.458  0.00  0.00    +0.000 C 
ATOM      3  C   UNL     1      -3.709  -5.696   1.557  0.00  0.00    +0.000 C 
ENDBRANCH   1   3
BRANCH   1   4
ATOM      4  C   UNL     1      -4.260  -3.507   0.553  0.00  0.00    +0.000 C 
ATOM      5  C   UNL     1      -4.904  -2.179   0.934  0.00  0.00    +0.000 C 
ENDBRANCH   1   4
BRANCH   1   6
ATOM      6  C   UNL     1      -3.907  -3.696   2.952  0.00  0.00    +0.000 C 
ATOM      7  C   UNL     1      -2.704  -3.118   3.694  0.00  0.00    +0.000 C 
ENDBRANCH   1   6
TORSDOF 3
ENDMDL
MODEL 7
REMARK VINA RESULT:    -2.623      1.774      2.879
REMARK INTER + INTRA:          -3.239
REMARK INTER:                  -3.041
REMARK INTRA:                  -0.198
REMARK UNBOUND:                -0.155
REMARK  Name = C:\DDRIVE\PROJECT\rmpr\authml\backend\results\ligand_1764487372018.pdb
REMARK  6 active torsions:
REMARK  status: ('A' for Active; 'I' for Inactive)
REMARK    1  A    between atoms: C_1  and  C_2
REMARK    2  A    between atoms: C_2  and  N_3
REMARK    3  A    between atoms: N_3  and  C_4
REMARK    4  A    between atoms: N_3  and  C_6
REMARK    5  A    between atoms: C_4  and  C_5
REMARK    6  A    between atoms: C_6  and  C_7
REMARK                            x       y       z     vdW  Elec       q    Type
REMARK                         _______ _______ _______ _____ _____    ______ ____
ROOT
ATOM      1  N   UNL     1      -4.495  -4.753   1.851  0.00  0.00    +0.000 NA
ENDROOT
BRANCH   1   3
ATOM      2  C   UNL     1      -3.114  -3.398   3.440  0.00  0.00    +0.000 C 
ATOM      3  C   UNL     1      -4.418  -4.152   3.191  0.00  0.00    +0.000 C 
ENDBRANCH   1   3
BRANCH   1   4
ATOM      4  C   UNL     1      -3.943  -3.905   0.779  0.00  0.00    +0.000 C 
ATOM      5  C   UNL     1      -4.879  -2.857   0.186  0.00  0.00    +0.000 C 
ENDBRANCH   1   4
BRANCH   1   6
ATOM      6  C   UNL     1      -3.925  -6.109   1.807  0.00  0.00    +0.000 C 
ATOM      7  C   UNL     1      -2.994  -6.326   0.615  0.00  0.00    +0.000 C 
ENDBRANCH   1   6
TORSDOF 3
ENDMDL
MODEL 8
REMARK VINA RESULT:    -2.590      1.792      2.135
REMARK INTER + INTRA:          -3.199
REMARK INTER:                  -3.057
REMARK INTRA:                  -0.142
REMARK UNBOUND:                -0.155
REMARK  Name = C:\DDRIVE\PROJECT\rmpr\authml\backend\results\ligand_1764487372018.pdb
REMARK  6 active torsions:
REMARK  status: ('A' for Active; 'I' for Inactive)
REMARK    1  A    between atoms: C_1  and  C_2
REMARK    2  A    between atoms: C_2  and  N_3
REMARK    3  A    between atoms: N_3  and  C_4
REMARK    4  A    between atoms: N_3  and  C_6
REMARK    5  A    between atoms: C_4  and  C_5
REMARK    6  A    between atoms: C_6  and  C_7
REMARK                            x       y       z     vdW  Elec       q    Type
REMARK                         _______ _______ _______ _____ _____    ______ ____
ROOT
ATOM      1  N   UNL     1      -4.157  -4.877   2.756  0.00  0.00    +0.000 NA
ENDROOT
BRANCH   1   3
ATOM      2  C   UNL     1      -6.251  -3.532   2.486  0.00  0.00    +0.000 C 
ATOM      3  C   UNL     1      -5.527  -4.645   3.238  0.00  0.00    +0.000 C 
ENDBRANCH   1   3
BRANCH   1   4
ATOM      4  C   UNL     1      -4.072  -5.804   1.612  0.00  0.00    +0.000 C 
ATOM      5  C   UNL     1      -4.491  -7.248   1.869  0.00  0.00    +0.000 C 
ENDBRANCH   1   4
BRANCH   1   6
ATOM      6  C   UNL     1      -3.435  -3.625   2.484  0.00  0.00    +0.000 C 
ATOM      7  C   UNL     1      -2.742  -3.056   3.720  0.00  0.00    +0.000 C 
ENDBRANCH   1   6
TORSDOF 3
ENDMDL
MODEL 9
REMARK VINA RESULT:    -2.451     14.217     15.139
REMARK INTER + INTRA:          -3.037
REMARK INTER:                  -2.872
REMARK INTRA:                  -0.164
REMARK UNBOUND:                -0.155
REMARK  Name = C:\DDRIVE\PROJECT\rmpr\authml\backend\results\ligand_1764487372018.pdb
REMARK  6 active torsions:
REMARK  status: ('A' for Active; 'I' for Inactive)
REMARK    1  A    between atoms: C_1  and  C_2
REMARK    2  A    between atoms: C_2  and  N_3
REMARK    3  A    between atoms: N_3  and  C_4
REMARK    4  A    between atoms: N_3  and  C_6
REMARK    5  A    between atoms: C_4  and  C_5
REMARK    6  A    between atoms: C_6  and  C_7
REMARK                            x       y       z     vdW  Elec       q    Type
REMARK                         _______ _______ _______ _____ _____    ______ ____
ROOT
ATOM      1  N   UNL     1      10.151  -4.401  -1.883  0.00  0.00    +0.000 NA
ENDROOT
BRANCH   1   3
ATOM      2  C   UNL     1       9.877  -1.975  -1.328  0.00  0.00    +0.000 C 
ATOM      3  C   UNL     1      10.081  -3.397  -0.811  0.00  0.00    +0.000 C 
ENDBRANCH   1   3
BRANCH   1   4
ATOM      4  C   UNL     1       8.874  -5.089  -2.146  0.00  0.00    +0.000 C 
ATOM      5  C   UNL     1       8.856  -6.079  -3.305  0.00  0.00    +0.000 C 
ENDBRANCH   1   4
BRANCH   1   6
ATOM      6  C   UNL     1      10.734  -3.863  -3.122  0.00  0.00    +0.000 C 
ATOM      7  C   UNL     1      12.226  -4.164  -3.258  0.00  0.00    +0.000 C 
ENDBRANCH   1   6
TORSDOF 3
ENDMDL
