MODEL 1
REMARK VINA RESULT:    -4.780      0.000      0.000
REMARK INTER + INTRA:          -5.582
REMARK INTER:                  -5.479
REMARK INTRA:                  -0.104
REMARK UNBOUND:                -0.104
REMARK  Name = C:\DDRIVE\PROJECT\authml\backend\results\ligand_1764478955311.pdb
REMARK  3 active torsions:
REMARK  status: ('A' for Active; 'I' for Inactive)
REMARK    1  A    between atoms: N_1  and  N_2
REMARK    2  A    between atoms: N_5  and  C_6
REMARK    3  A    between atoms: C_6  and  C_7
REMARK                            x       y       z     vdW  Elec       q    Type
REMARK                         _______ _______ _______ _____ _____    ______ ____
ROOT
ATOM      1  N   UNL     1      -8.078   1.580   2.921  0.00  0.00    +0.000 N 
ATOM      2  C   UNL     1      -8.026   0.578   3.858  0.00  0.00    +0.000 C 
ATOM      3  O   UNL     1      -8.581   0.659   4.954  0.00  0.00    +0.000 OA
ATOM      4  N   UNL     1      -7.332  -0.547   3.544  0.00  0.00    +0.000 N 
ATOM      5  H   UNL     1      -7.547   1.530   2.060  0.00  0.00    +0.000 HD
ATOM      6  H   UNL     1      -7.356  -1.228   4.294  0.00  0.00    +0.000 HD
ENDROOT
BRANCH   1   7
ATOM      7  N   UNL     1      -8.773   2.781   3.207  0.00  0.00    +0.000 NA
ATOM      8  H   UNL     1      -9.337   2.602   4.048  0.00  0.00    +0.000 HD
ATOM      9  H   UNL     1      -8.081   3.460   3.542  0.00  0.00    +0.000 HD
ENDBRANCH   1   7
BRANCH   4  10
ATOM     10  C   UNL     1      -6.605  -0.935   2.348  0.00  0.00    +0.000 C 
BRANCH  10  11
ATOM     11  C   UNL     1      -5.678  -2.100   2.606  0.00  0.00    +0.000 A 
ATOM     12  C   UNL     1      -4.308  -1.874   2.803  0.00  0.00    +0.000 A 
ATOM     13  C   UNL     1      -3.440  -2.932   3.081  0.00  0.00    +0.000 A 
ATOM     14  C   UNL     1      -3.928  -4.232   3.165  0.00  0.00    +0.000 A 
ATOM     15  C   UNL     1      -5.287  -4.476   2.967  0.00  0.00    +0.000 A 
ATOM     16  C   UNL     1      -6.156  -3.417   2.691  0.00  0.00    +0.000 A 
ENDBRANCH  10  11
ENDBRANCH   4  10
TORSDOF 3
ENDMDL
MODEL 2
REMARK VINA RESULT:    -4.767     17.073     18.023
REMARK INTER + INTRA:          -5.568
REMARK INTER:                  -5.372
REMARK INTRA:                  -0.195
REMARK UNBOUND:                -0.104
REMARK  Name = C:\DDRIVE\PROJECT\authml\backend\results\ligand_1764478955311.pdb
REMARK  3 active torsions:
REMARK  status: ('A' for Active; 'I' for Inactive)
REMARK    1  A    between atoms: N_1  and  N_2
REMARK    2  A    between atoms: N_5  and  C_6
REMARK    3  A    between atoms: C_6  and  C_7
REMARK                            x       y       z     vdW  Elec       q    Type
REMARK                         _______ _______ _______ _____ _____    ______ ____
ROOT
ATOM      1  N   UNL     1       9.901  -1.713  -2.270  0.00  0.00    +0.000 N 
ATOM      2  C   UNL     1      10.619  -2.294  -1.255  0.00  0.00    +0.000 C 
ATOM      3  O   UNL     1      10.564  -1.902  -0.089  0.00  0.00    +0.000 OA
ATOM      4  N   UNL     1      11.417  -3.349  -1.567  0.00  0.00    +0.000 N 
ATOM      5  H   UNL     1      10.022  -1.995  -3.236  0.00  0.00    +0.000 HD
ATOM      6  H   UNL     1      11.900  -3.711  -0.753  0.00  0.00    +0.000 HD
ENDROOT
BRANCH   1   7
ATOM      7  N   UNL     1       9.069  -0.598  -2.001  0.00  0.00    +0.000 NA
ATOM      8  H   UNL     1       9.685   0.153  -1.660  0.00  0.00    +0.000 HD
ATOM      9  H   UNL     1       8.749  -0.232  -2.904  0.00  0.00    +0.000 HD
ENDBRANCH   1   7
BRANCH   4  10
ATOM     10  C   UNL     1      11.668  -4.036  -2.821  0.00  0.00    +0.000 C 
BRANCH  10  11
ATOM     11  C   UNL     1      10.888  -5.326  -2.922  0.00  0.00    +0.000 A 
ATOM     12  C   UNL     1       9.551  -5.303  -3.347  0.00  0.00    +0.000 A 
ATOM     13  C   UNL     1       8.823  -6.488  -3.485  0.00  0.00    +0.000 A 
ATOM     14  C   UNL     1       9.421  -7.711  -3.198  0.00  0.00    +0.000 A 
ATOM     15  C   UNL     1      10.747  -7.751  -2.770  0.00  0.00    +0.000 A 
ATOM     16  C   UNL     1      11.476  -6.567  -2.633  0.00  0.00    +0.000 A 
ENDBRANCH  10  11
ENDBRANCH   4  10
TORSDOF 3
ENDMDL
MODEL 3
REMARK VINA RESULT:    -4.765      2.021      2.509
REMARK INTER + INTRA:          -5.565
REMARK INTER:                  -5.435
REMARK INTRA:                  -0.129
REMARK UNBOUND:                -0.104
REMARK  Name = C:\DDRIVE\PROJECT\authml\backend\results\ligand_1764478955311.pdb
REMARK  3 active torsions:
REMARK  status: ('A' for Active; 'I' for Inactive)
REMARK    1  A    between atoms: N_1  and  N_2
REMARK    2  A    between atoms: N_5  and  C_6
REMARK    3  A    between atoms: C_6  and  C_7
REMARK                            x       y       z     vdW  Elec       q    Type
REMARK                         _______ _______ _______ _____ _____    ______ ____
ROOT
ATOM      1  N   UNL     1      -7.044  -0.193   4.169  0.00  0.00    +0.000 N 
ATOM      2  C   UNL     1      -7.200  -0.476   2.835  0.00  0.00    +0.000 C 
ATOM      3  O   UNL     1      -8.183  -0.115   2.186  0.00  0.00    +0.000 OA
ATOM      4  N   UNL     1      -6.216  -1.180   2.217  0.00  0.00    +0.000 N 
ATOM      5  H   UNL     1      -6.271  -0.568   4.704  0.00  0.00    +0.000 HD
ATOM      6  H   UNL     1      -6.419  -1.334   1.237  0.00  0.00    +0.000 HD
ENDROOT
BRANCH   1   7
ATOM      7  N   UNL     1      -8.051   0.522   4.863  0.00  0.00    +0.000 NA
ATOM      8  H   UNL     1      -7.824   1.520   4.767  0.00  0.00    +0.000 HD
ATOM      9  H   UNL     1      -8.916   0.435   4.319  0.00  0.00    +0.000 HD
ENDBRANCH   1   7
BRANCH   4  10
ATOM     10  C   UNL     1      -4.955  -1.712   2.702  0.00  0.00    +0.000 C 
BRANCH  10  11
ATOM     11  C   UNL     1      -4.497  -2.901   1.891  0.00  0.00    +0.000 A 
ATOM     12  C   UNL     1      -4.795  -2.971   0.522  0.00  0.00    +0.000 A 
ATOM     13  C   UNL     1      -4.348  -4.041  -0.256  0.00  0.00    +0.000 A 
ATOM     14  C   UNL     1      -3.597  -5.059   0.324  0.00  0.00    +0.000 A 
ATOM     15  C   UNL     1      -3.295  -5.008   1.685  0.00  0.00    +0.000 A 
ATOM     16  C   UNL     1      -3.741  -3.936   2.462  0.00  0.00    +0.000 A 
ENDBRANCH  10  11
ENDBRANCH   4  10
TORSDOF 3
ENDMDL
MODEL 4
REMARK VINA RESULT:    -4.683      6.012      6.958
REMARK INTER + INTRA:          -5.472
REMARK INTER:                  -5.390
REMARK INTRA:                  -0.082
REMARK UNBOUND:                -0.104
REMARK  Name = C:\DDRIVE\PROJECT\authml\backend\results\ligand_1764478955311.pdb
REMARK  3 active torsions:
REMARK  status: ('A' for Active; 'I' for Inactive)
REMARK    1  A    between atoms: N_1  and  N_2
REMARK    2  A    between atoms: N_5  and  C_6
REMARK    3  A    between atoms: C_6  and  C_7
REMARK                            x       y       z     vdW  Elec       q    Type
REMARK                         _______ _______ _______ _____ _____    ______ ____
ROOT
ATOM      1  N   UNL     1      -4.961  -7.488   1.587  0.00  0.00    +0.000 N 
ATOM      2  C   UNL     1      -3.588  -7.504   1.575  0.00  0.00    +0.000 C 
ATOM      3  O   UNL     1      -2.926  -8.380   2.132  0.00  0.00    +0.000 OA
ATOM      4  N   UNL     1      -2.948  -6.506   0.911  0.00  0.00    +0.000 N 
ATOM      5  H   UNL     1      -5.486  -6.716   1.195  0.00  0.00    +0.000 HD
ATOM      6  H   UNL     1      -1.941  -6.608   0.955  0.00  0.00    +0.000 HD
ENDROOT
BRANCH   1   7
ATOM      7  N   UNL     1      -5.675  -8.495   2.282  0.00  0.00    +0.000 NA
ATOM      8  H   UNL     1      -5.005  -9.253   2.471  0.00  0.00    +0.000 HD
ATOM      9  H   UNL     1      -5.876  -8.134   3.220  0.00  0.00    +0.000 HD
ENDBRANCH   1   7
BRANCH   4  10
ATOM     10  C   UNL     1      -3.446  -5.370   0.157  0.00  0.00    +0.000 C 
BRANCH  10  11
ATOM     11  C   UNL     1      -3.760  -4.194   1.052  0.00  0.00    +0.000 A 
ATOM     12  C   UNL     1      -4.543  -3.136   0.568  0.00  0.00    +0.000 A 
ATOM     13  C   UNL     1      -4.878  -2.058   1.391  0.00  0.00    +0.000 A 
ATOM     14  C   UNL     1      -4.432  -2.020   2.708  0.00  0.00    +0.000 A 
ATOM     15  C   UNL     1      -3.648  -3.062   3.204  0.00  0.00    +0.000 A 
ATOM     16  C   UNL     1      -3.315  -4.141   2.382  0.00  0.00    +0.000 A 
ENDBRANCH  10  11
ENDBRANCH   4  10
TORSDOF 3
ENDMDL
MODEL 5
REMARK VINA RESULT:    -4.631     16.367     17.547
REMARK INTER + INTRA:          -5.412
REMARK INTER:                  -5.271
REMARK INTRA:                  -0.140
REMARK UNBOUND:                -0.104
REMARK  Name = C:\DDRIVE\PROJECT\authml\backend\results\ligand_1764478955311.pdb
REMARK  3 active torsions:
REMARK  status: ('A' for Active; 'I' for Inactive)
REMARK    1  A    between atoms: N_1  and  N_2
REMARK    2  A    between atoms: N_5  and  C_6
REMARK    3  A    between atoms: C_6  and  C_7
REMARK                            x       y       z     vdW  Elec       q    Type
REMARK                         _______ _______ _______ _____ _____    ______ ____
ROOT
ATOM      1  N   UNL     1      11.595  -2.937  -3.054  0.00  0.00    +0.000 N 
ATOM      2  C   UNL     1      10.496  -2.744  -2.254  0.00  0.00    +0.000 C 
ATOM      3  O   UNL     1      10.287  -1.693  -1.648  0.00  0.00    +0.000 OA
ATOM      4  N   UNL     1       9.607  -3.765  -2.143  0.00  0.00    +0.000 N 
ATOM      5  H   UNL     1      11.793  -3.835  -3.478  0.00  0.00    +0.000 HD
ATOM      6  H   UNL     1       8.830  -3.526  -1.539  0.00  0.00    +0.000 HD
ENDROOT
BRANCH   1   7
ATOM      7  N   UNL     1      12.562  -1.910  -3.187  0.00  0.00    +0.000 NA
ATOM      8  H   UNL     1      12.104  -1.035  -2.899  0.00  0.00    +0.000 HD
ATOM      9  H   UNL     1      13.260  -2.051  -2.448  0.00  0.00    +0.000 HD
ENDBRANCH   1   7
BRANCH   4  10
ATOM     10  C   UNL     1       9.571  -5.088  -2.742  0.00  0.00    +0.000 C 
BRANCH  10  11
ATOM     11  C   UNL     1       9.143  -6.143  -1.749  0.00  0.00    +0.000 A 
ATOM     12  C   UNL     1       9.492  -7.485  -1.960  0.00  0.00    +0.000 A 
ATOM     13  C   UNL     1       9.140  -8.471  -1.035  0.00  0.00    +0.000 A 
ATOM     14  C   UNL     1       8.432  -8.130   0.113  0.00  0.00    +0.000 A 
ATOM     15  C   UNL     1       8.072  -6.801   0.336  0.00  0.00    +0.000 A 
ATOM     16  C   UNL     1       8.426  -5.814  -0.588  0.00  0.00    +0.000 A 
ENDBRANCH  10  11
ENDBRANCH   4  10
TORSDOF 3
ENDMDL
MODEL 6
REMARK VINA RESULT:    -4.562     15.766     16.573
REMARK INTER + INTRA:          -5.332
REMARK INTER:                  -5.201
REMARK INTRA:                  -0.131
REMARK UNBOUND:                -0.104
REMARK  Name = C:\DDRIVE\PROJECT\authml\backend\results\ligand_1764478955311.pdb
REMARK  3 active torsions:
REMARK  status: ('A' for Active; 'I' for Inactive)
REMARK    1  A    between atoms: N_1  and  N_2
REMARK    2  A    between atoms: N_5  and  C_6
REMARK    3  A    between atoms: C_6  and  C_7
REMARK                            x       y       z     vdW  Elec       q    Type
REMARK                         _______ _______ _______ _____ _____    ______ ____
ROOT
ATOM      1  N   UNL     1       9.274  -1.930  -1.716  0.00  0.00    +0.000 N 
ATOM      2  C   UNL     1      10.080  -2.599  -0.828  0.00  0.00    +0.000 C 
ATOM      3  O   UNL     1      10.798  -2.022  -0.011  0.00  0.00    +0.000 OA
ATOM      4  N   UNL     1      10.068  -3.958  -0.862  0.00  0.00    +0.000 N 
ATOM      5  H   UNL     1       8.755  -2.420  -2.435  0.00  0.00    +0.000 HD
ATOM      6  H   UNL     1      10.689  -4.358  -0.168  0.00  0.00    +0.000 HD
ENDROOT
BRANCH   1   7
ATOM      7  N   UNL     1       9.265  -0.514  -1.734  0.00  0.00    +0.000 NA
ATOM      8  H   UNL     1       8.480  -0.216  -1.140  0.00  0.00    +0.000 HD
ATOM      9  H   UNL     1      10.083  -0.197  -1.201  0.00  0.00    +0.000 HD
ENDBRANCH   1   7
BRANCH   4  10
ATOM     10  C   UNL     1       9.326  -4.900  -1.680  0.00  0.00    +0.000 C 
BRANCH  10  11
ATOM     11  C   UNL     1       8.863  -6.096  -0.881  0.00  0.00    +0.000 A 
ATOM     12  C   UNL     1       8.016  -5.915   0.221  0.00  0.00    +0.000 A 
ATOM     13  C   UNL     1       7.545  -7.010   0.950  0.00  0.00    +0.000 A 
ATOM     14  C   UNL     1       7.916  -8.301   0.588  0.00  0.00    +0.000 A 
ATOM     15  C   UNL     1       8.762  -8.499  -0.503  0.00  0.00    +0.000 A 
ATOM     16  C   UNL     1       9.232  -7.404  -1.233  0.00  0.00    +0.000 A 
ENDBRANCH  10  11
ENDBRANCH   4  10
TORSDOF 3
ENDMDL
MODEL 7
REMARK VINA RESULT:    -4.474      6.338      7.507
REMARK INTER + INTRA:          -5.232
REMARK INTER:                  -5.054
REMARK INTRA:                  -0.177
REMARK UNBOUND:                -0.104
REMARK  Name = C:\DDRIVE\PROJECT\authml\backend\results\ligand_1764478955311.pdb
REMARK  3 active torsions:
REMARK  status: ('A' for Active; 'I' for Inactive)
REMARK    1  A    between atoms: N_1  and  N_2
REMARK    2  A    between atoms: N_5  and  C_6
REMARK    3  A    between atoms: C_6  and  C_7
REMARK                            x       y       z     vdW  Elec       q    Type
REMARK                         _______ _______ _______ _____ _____    ______ ____
ROOT
ATOM      1  N   UNL     1      -3.931  -6.930  -1.614  0.00  0.00    +0.000 N 
ATOM      2  C   UNL     1      -2.672  -6.529  -1.243  0.00  0.00    +0.000 C 
ATOM      3  O   UNL     1      -1.719  -6.514  -2.023  0.00  0.00    +0.000 OA
ATOM      4  N   UNL     1      -2.487  -6.130   0.042  0.00  0.00    +0.000 N 
ATOM      5  H   UNL     1      -4.682  -7.015  -0.939  0.00  0.00    +0.000 HD
ATOM      6  H   UNL     1      -1.530  -5.849   0.217  0.00  0.00    +0.000 HD
ENDROOT
BRANCH   1   7
ATOM      7  N   UNL     1      -4.172  -7.374  -2.938  0.00  0.00    +0.000 NA
ATOM      8  H   UNL     1      -4.566  -6.575  -3.450  0.00  0.00    +0.000 HD
ATOM      9  H   UNL     1      -3.258  -7.501  -3.387  0.00  0.00    +0.000 HD
ENDBRANCH   1   7
BRANCH   4  10
ATOM     10  C   UNL     1      -3.403  -6.020   1.163  0.00  0.00    +0.000 C 
BRANCH  10  11
ATOM     11  C   UNL     1      -3.747  -4.581   1.469  0.00  0.00    +0.000 A 
ATOM     12  C   UNL     1      -4.392  -3.795   0.503  0.00  0.00    +0.000 A 
ATOM     13  C   UNL     1      -4.754  -2.474   0.778  0.00  0.00    +0.000 A 
ATOM     14  C   UNL     1      -4.476  -1.919   2.023  0.00  0.00    +0.000 A 
ATOM     15  C   UNL     1      -3.831  -2.685   2.994  0.00  0.00    +0.000 A 
ATOM     16  C   UNL     1      -3.470  -4.007   2.720  0.00  0.00    +0.000 A 
ENDBRANCH  10  11
ENDBRANCH   4  10
TORSDOF 3
ENDMDL
MODEL 8
REMARK VINA RESULT:    -4.433     15.653     16.745
REMARK INTER + INTRA:          -5.185
REMARK INTER:                  -5.053
REMARK INTRA:                  -0.132
REMARK UNBOUND:                -0.104
REMARK  Name = C:\DDRIVE\PROJECT\authml\backend\results\ligand_1764478955311.pdb
REMARK  3 active torsions:
REMARK  status: ('A' for Active; 'I' for Inactive)
REMARK    1  A    between atoms: N_1  and  N_2
REMARK    2  A    between atoms: N_5  and  C_6
REMARK    3  A    between atoms: C_6  and  C_7
REMARK                            x       y       z     vdW  Elec       q    Type
REMARK                         _______ _______ _______ _____ _____    ______ ____
ROOT
ATOM      1  N   UNL     1       9.463  -1.889  -1.738  0.00  0.00    +0.000 N 
ATOM      2  C   UNL     1      10.698  -2.129  -1.189  0.00  0.00    +0.000 C 
ATOM      3  O   UNL     1      11.471  -1.227  -0.864  0.00  0.00    +0.000 OA
ATOM      4  N   UNL     1      11.066  -3.423  -0.997  0.00  0.00    +0.000 N 
ATOM      5  H   UNL     1       8.876  -2.643  -2.075  0.00  0.00    +0.000 HD
ATOM      6  H   UNL     1      11.988  -3.496  -0.584  0.00  0.00    +0.000 HD
ENDROOT
BRANCH   1   7
ATOM      7  N   UNL     1       9.041  -0.558  -1.976  0.00  0.00    +0.000 NA
ATOM      8  H   UNL     1       9.246  -0.026  -1.120  0.00  0.00    +0.000 HD
ATOM      9  H   UNL     1       9.692  -0.149  -2.656  0.00  0.00    +0.000 HD
ENDBRANCH   1   7
BRANCH   4  10
ATOM     10  C   UNL     1      10.376  -4.674  -1.255  0.00  0.00    +0.000 C 
BRANCH  10  11
ATOM     11  C   UNL     1       9.449  -5.049  -0.123  0.00  0.00    +0.000 A 
ATOM     12  C   UNL     1       8.355  -5.892  -0.365  0.00  0.00    +0.000 A 
ATOM     13  C   UNL     1       7.507  -6.283   0.674  0.00  0.00    +0.000 A 
ATOM     14  C   UNL     1       7.740  -5.835   1.970  0.00  0.00    +0.000 A 
ATOM     15  C   UNL     1       8.821  -4.991   2.228  0.00  0.00    +0.000 A 
ATOM     16  C   UNL     1       9.670  -4.602   1.189  0.00  0.00    +0.000 A 
ENDBRANCH  10  11
ENDBRANCH   4  10
TORSDOF 3
ENDMDL
MODEL 9
REMARK VINA RESULT:    -4.368      5.164      6.279
REMARK INTER + INTRA:          -5.109
REMARK INTER:                  -4.967
REMARK INTRA:                  -0.143
REMARK UNBOUND:                -0.104
REMARK  Name = C:\DDRIVE\PROJECT\authml\backend\results\ligand_1764478955311.pdb
REMARK  3 active torsions:
REMARK  status: ('A' for Active; 'I' for Inactive)
REMARK    1  A    between atoms: N_1  and  N_2
REMARK    2  A    between atoms: N_5  and  C_6
REMARK    3  A    between atoms: C_6  and  C_7
REMARK                            x       y       z     vdW  Elec       q    Type
REMARK                         _______ _______ _______ _____ _____    ______ ____
ROOT
ATOM      1  N   UNL     1      -5.050  -6.416   2.455  0.00  0.00    +0.000 N 
ATOM      2  C   UNL     1      -3.885  -6.193   1.766  0.00  0.00    +0.000 C 
ATOM      3  O   UNL     1      -3.427  -6.995   0.951  0.00  0.00    +0.000 OA
ATOM      4  N   UNL     1      -3.223  -5.030   2.000  0.00  0.00    +0.000 N 
ATOM      5  H   UNL     1      -5.367  -5.785   3.181  0.00  0.00    +0.000 HD
ATOM      6  H   UNL     1      -2.381  -4.955   1.442  0.00  0.00    +0.000 HD
ENDROOT
BRANCH   1   7
ATOM      7  N   UNL     1      -5.768  -7.623   2.261  0.00  0.00    +0.000 NA
ATOM      8  H   UNL     1      -5.641  -7.886   1.275  0.00  0.00    +0.000 HD
ATOM      9  H   UNL     1      -5.259  -8.362   2.758  0.00  0.00    +0.000 HD
ENDBRANCH   1   7
BRANCH   4  10
ATOM     10  C   UNL     1      -3.520  -3.905   2.868  0.00  0.00    +0.000 C 
BRANCH  10  11
ATOM     11  C   UNL     1      -4.413  -2.892   2.191  0.00  0.00    +0.000 A 
ATOM     12  C   UNL     1      -4.417  -2.787   0.792  0.00  0.00    +0.000 A 
ATOM     13  C   UNL     1      -5.264  -1.885   0.144  0.00  0.00    +0.000 A 
ATOM     14  C   UNL     1      -6.118  -1.073   0.884  0.00  0.00    +0.000 A 
ATOM     15  C   UNL     1      -6.123  -1.161   2.276  0.00  0.00    +0.000 A 
ATOM     16  C   UNL     1      -5.277  -2.065   2.925  0.00  0.00    +0.000 A 
ENDBRANCH  10  11
ENDBRANCH   4  10
TORSDOF 3
ENDMDL
