MODEL 1
REMARK VINA RESULT:    -4.215      0.000      0.000
REMARK INTER + INTRA:          -5.725
REMARK INTER:                  -5.078
REMARK INTRA:                  -0.647
REMARK UNBOUND:                -0.647
REMARK  Name = results/0213d392-5071-4956-925e-3e3483774929_ligand.pdb
REMARK  5 active torsions:
REMARK  status: ('A' for Active; 'I' for Inactive)
REMARK    1  A    between atoms: C1_1  and  C2_2
REMARK    2  A    between atoms: C2_2  and  O2_4
REMARK    3  A    between atoms: O2_4  and  C3_5
REMARK    4  A    between atoms: C8_10  and  C9_11
REMARK    5  A    between atoms: C9_11  and  O4_13
REMARK                            x       y       z     vdW  Elec       q    Type
REMARK                         _______ _______ _______ _____ _____    ______ ____
ROOT
ATOM      1  C3  UNL     1      10.015  -3.987  -1.104  0.00  0.00    +0.000 A 
ATOM      2  C4  UNL     1       9.184  -4.818  -0.326  0.00  0.00    +0.000 A 
ATOM      3  C5  UNL     1       8.624  -5.973  -0.872  0.00  0.00    +0.000 A 
ATOM      4  C6  UNL     1       8.873  -6.310  -2.200  0.00  0.00    +0.000 A 
ATOM      5  C7  UNL     1       9.677  -5.489  -2.992  0.00  0.00    +0.000 A 
ATOM      6  C8  UNL     1      10.253  -4.318  -2.462  0.00  0.00    +0.000 A 
ENDROOT
BRANCH   6   7
ATOM      7  C9  UNL     1      11.102  -3.471  -3.342  0.00  0.00    +0.000 C 
ATOM      8  O3  UNL     1      12.270  -3.828  -3.653  0.00  0.00    +0.000 OA
BRANCH   7   9
ATOM      9  O4  UNL     1      10.611  -2.265  -3.834  0.00  0.00    +0.000 OA
ATOM     10  H8  UNL     1       9.616  -2.120  -3.962  0.00  0.00    +0.000 HD
ENDBRANCH   7   9
ENDBRANCH   6   7
BRANCH   1  11
ATOM     11  O2  UNL     1      10.570  -2.815  -0.563  0.00  0.00    +0.000 OA
BRANCH  11  13
ATOM     12  C1  UNL     1       9.691  -1.056   0.971  0.00  0.00    +0.000 C 
ATOM     13  C2  UNL     1       9.897  -1.599  -0.402  0.00  0.00    +0.000 C 
ATOM     14  O1  UNL     1       9.377  -1.008  -1.388  0.00  0.00    +0.000 OA
ENDBRANCH  11  13
ENDBRANCH   1  11
TORSDOF 4
ENDMDL
MODEL 2
REMARK VINA RESULT:    -4.151     13.806     14.832
REMARK INTER + INTRA:          -5.648
REMARK INTER:                  -5.006
REMARK INTRA:                  -0.642
REMARK UNBOUND:                -0.647
REMARK  Name = results/0213d392-5071-4956-925e-3e3483774929_ligand.pdb
REMARK  5 active torsions:
REMARK  status: ('A' for Active; 'I' for Inactive)
REMARK    1  A    between atoms: C1_1  and  C2_2
REMARK    2  A    between atoms: C2_2  and  O2_4
REMARK    3  A    between atoms: O2_4  and  C3_5
REMARK    4  A    between atoms: C8_10  and  C9_11
REMARK    5  A    between atoms: C9_11  and  O4_13
REMARK                            x       y       z     vdW  Elec       q    Type
REMARK                         _______ _______ _______ _____ _____    ______ ____
ROOT
ATOM      1  C3  UNL     1      -4.563  -3.959   0.557  0.00  0.00    +0.000 A 
ATOM      2  C4  UNL     1      -4.962  -2.624   0.762  0.00  0.00    +0.000 A 
ATOM      3  C5  UNL     1      -4.629  -1.956   1.941  0.00  0.00    +0.000 A 
ATOM      4  C6  UNL     1      -3.905  -2.611   2.934  0.00  0.00    +0.000 A 
ATOM      5  C7  UNL     1      -3.518  -3.940   2.757  0.00  0.00    +0.000 A 
ATOM      6  C8  UNL     1      -3.843  -4.634   1.576  0.00  0.00    +0.000 A 
ENDROOT
BRANCH   6   7
ATOM      7  C9  UNL     1      -3.412  -6.050   1.430  0.00  0.00    +0.000 C 
ATOM      8  O3  UNL     1      -3.993  -6.973   2.061  0.00  0.00    +0.000 OA
BRANCH   7   9
ATOM      9  O4  UNL     1      -2.353  -6.373   0.586  0.00  0.00    +0.000 OA
ATOM     10  H8  UNL     1      -2.053  -7.334   0.471  0.00  0.00    +0.000 HD
ENDBRANCH   7   9
ENDBRANCH   6   7
BRANCH   1  11
ATOM     11  O2  UNL     1      -4.908  -4.640  -0.622  0.00  0.00    +0.000 OA
BRANCH  11  13
ATOM     12  C1  UNL     1      -4.666  -3.643  -2.896  0.00  0.00    +0.000 C 
ATOM     13  C2  UNL     1      -4.203  -4.577  -1.830  0.00  0.00    +0.000 C 
ATOM     14  O1  UNL     1      -3.247  -5.365  -2.067  0.00  0.00    +0.000 OA
ENDBRANCH  11  13
ENDBRANCH   1  11
TORSDOF 4
ENDMDL
MODEL 3
REMARK VINA RESULT:    -4.094     13.370     14.357
REMARK INTER + INTRA:          -5.579
REMARK INTER:                  -5.141
REMARK INTRA:                  -0.438
REMARK UNBOUND:                -0.647
REMARK  Name = results/0213d392-5071-4956-925e-3e3483774929_ligand.pdb
REMARK  5 active torsions:
REMARK  status: ('A' for Active; 'I' for Inactive)
REMARK    1  A    between atoms: C1_1  and  C2_2
REMARK    2  A    between atoms: C2_2  and  O2_4
REMARK    3  A    between atoms: O2_4  and  C3_5
REMARK    4  A    between atoms: C8_10  and  C9_11
REMARK    5  A    between atoms: C9_11  and  O4_13
REMARK                            x       y       z     vdW  Elec       q    Type
REMARK                         _______ _______ _______ _____ _____    ______ ____
ROOT
ATOM      1  C3  UNL     1      -3.895  -4.153   0.561  0.00  0.00    +0.000 A 
ATOM      2  C4  UNL     1      -4.523  -2.908   0.360  0.00  0.00    +0.000 A 
ATOM      3  C5  UNL     1      -5.074  -2.583  -0.881  0.00  0.00    +0.000 A 
ATOM      4  C6  UNL     1      -4.996  -3.487  -1.937  0.00  0.00    +0.000 A 
ATOM      5  C7  UNL     1      -4.360  -4.717  -1.762  0.00  0.00    +0.000 A 
ATOM      6  C8  UNL     1      -3.797  -5.065  -0.519  0.00  0.00    +0.000 A 
ENDROOT
BRANCH   6   7
ATOM      7  C9  UNL     1      -3.127  -6.385  -0.376  0.00  0.00    +0.000 C 
ATOM      8  O3  UNL     1      -3.440  -7.355  -1.118  0.00  0.00    +0.000 OA
BRANCH   7   9
ATOM      9  O4  UNL     1      -2.137  -6.565   0.586  0.00  0.00    +0.000 OA
ATOM     10  H8  UNL     1      -1.804  -7.492   0.824  0.00  0.00    +0.000 HD
ENDBRANCH   7   9
ENDBRANCH   6   7
BRANCH   1  11
ATOM     11  O2  UNL     1      -3.326  -4.478   1.805  0.00  0.00    +0.000 OA
BRANCH  11  13
ATOM     12  C1  UNL     1      -2.748  -3.002   3.730  0.00  0.00    +0.000 C 
ATOM     13  C2  UNL     1      -3.694  -3.921   3.035  0.00  0.00    +0.000 C 
ATOM     14  O1  UNL     1      -4.765  -4.259   3.608  0.00  0.00    +0.000 OA
ENDBRANCH  11  13
ENDBRANCH   1  11
TORSDOF 4
ENDMDL
MODEL 4
REMARK VINA RESULT:    -4.053     14.079     15.020
REMARK INTER + INTRA:          -5.530
REMARK INTER:                  -4.957
REMARK INTRA:                  -0.573
REMARK UNBOUND:                -0.647
REMARK  Name = results/0213d392-5071-4956-925e-3e3483774929_ligand.pdb
REMARK  5 active torsions:
REMARK  status: ('A' for Active; 'I' for Inactive)
REMARK    1  A    between atoms: C1_1  and  C2_2
REMARK    2  A    between atoms: C2_2  and  O2_4
REMARK    3  A    between atoms: O2_4  and  C3_5
REMARK    4  A    between atoms: C8_10  and  C9_11
REMARK    5  A    between atoms: C9_11  and  O4_13
REMARK                            x       y       z     vdW  Elec       q    Type
REMARK                         _______ _______ _______ _____ _____    ______ ____
ROOT
ATOM      1  C3  UNL     1      -3.635  -4.363   1.498  0.00  0.00    +0.000 A 
ATOM      2  C4  UNL     1      -3.241  -3.829   2.740  0.00  0.00    +0.000 A 
ATOM      3  C5  UNL     1      -3.668  -2.561   3.135  0.00  0.00    +0.000 A 
ATOM      4  C6  UNL     1      -4.483  -1.805   2.295  0.00  0.00    +0.000 A 
ATOM      5  C7  UNL     1      -4.867  -2.310   1.052  0.00  0.00    +0.000 A 
ATOM      6  C8  UNL     1      -4.447  -3.588   0.633  0.00  0.00    +0.000 A 
ENDROOT
BRANCH   6   7
ATOM      7  C9  UNL     1      -4.879  -4.086  -0.700  0.00  0.00    +0.000 C 
ATOM      8  O3  UNL     1      -6.049  -3.880  -1.122  0.00  0.00    +0.000 OA
BRANCH   7   9
ATOM      9  O4  UNL     1      -3.988  -4.791  -1.504  0.00  0.00    +0.000 OA
ATOM     10  H8  UNL     1      -3.092  -5.098  -1.144  0.00  0.00    +0.000 HD
ENDBRANCH   7   9
ENDBRANCH   6   7
BRANCH   1  11
ATOM     11  O2  UNL     1      -3.196  -5.634   1.089  0.00  0.00    +0.000 OA
BRANCH  11  13
ATOM     12  C1  UNL     1      -5.165  -6.904   1.947  0.00  0.00    +0.000 C 
ATOM     13  C2  UNL     1      -3.740  -6.853   1.511  0.00  0.00    +0.000 C 
ATOM     14  O1  UNL     1      -3.020  -7.883   1.622  0.00  0.00    +0.000 OA
ENDBRANCH  11  13
ENDBRANCH   1  11
TORSDOF 4
ENDMDL
MODEL 5
REMARK VINA RESULT:    -3.886      2.710      3.897
REMARK INTER + INTRA:          -5.329
REMARK INTER:                  -4.929
REMARK INTRA:                  -0.400
REMARK UNBOUND:                -0.647
REMARK  Name = results/0213d392-5071-4956-925e-3e3483774929_ligand.pdb
REMARK  5 active torsions:
REMARK  status: ('A' for Active; 'I' for Inactive)
REMARK    1  A    between atoms: C1_1  and  C2_2
REMARK    2  A    between atoms: C2_2  and  O2_4
REMARK    3  A    between atoms: O2_4  and  C3_5
REMARK    4  A    between atoms: C8_10  and  C9_11
REMARK    5  A    between atoms: C9_11  and  O4_13
REMARK                            x       y       z     vdW  Elec       q    Type
REMARK                         _______ _______ _______ _____ _____    ______ ____
ROOT
ATOM      1  C3  UNL     1       9.142  -4.590  -1.616  0.00  0.00    +0.000 A 
ATOM      2  C4  UNL     1       9.632  -3.375  -1.099  0.00  0.00    +0.000 A 
ATOM      3  C5  UNL     1      10.599  -2.646  -1.793  0.00  0.00    +0.000 A 
ATOM      4  C6  UNL     1      11.097  -3.123  -3.003  0.00  0.00    +0.000 A 
ATOM      5  C7  UNL     1      10.638  -4.335  -3.521  0.00  0.00    +0.000 A 
ATOM      6  C8  UNL     1       9.663  -5.086  -2.837  0.00  0.00    +0.000 A 
ENDROOT
BRANCH   6   7
ATOM      7  C9  UNL     1       9.203  -6.373  -3.424  0.00  0.00    +0.000 C 
ATOM      8  O3  UNL     1       9.740  -7.465  -3.095  0.00  0.00    +0.000 OA
BRANCH   7   9
ATOM      9  O4  UNL     1       8.164  -6.385  -4.352  0.00  0.00    +0.000 OA
ATOM     10  H8  UNL     1       7.833  -5.526  -4.774  0.00  0.00    +0.000 HD
ENDBRANCH   7   9
ENDBRANCH   6   7
BRANCH   1  11
ATOM     11  O2  UNL     1       8.178  -5.334  -0.913  0.00  0.00    +0.000 OA
BRANCH  11  13
ATOM     12  C1  UNL     1       7.493  -6.130   1.349  0.00  0.00    +0.000 C 
ATOM     13  C2  UNL     1       8.435  -6.151   0.194  0.00  0.00    +0.000 C 
ATOM     14  O1  UNL     1       9.497  -6.826   0.271  0.00  0.00    +0.000 OA
ENDBRANCH  11  13
ENDBRANCH   1  11
TORSDOF 4
ENDMDL
MODEL 6
REMARK VINA RESULT:    -3.842     13.871     15.292
REMARK INTER + INTRA:          -5.276
REMARK INTER:                  -4.778
REMARK INTRA:                  -0.498
REMARK UNBOUND:                -0.647
REMARK  Name = results/0213d392-5071-4956-925e-3e3483774929_ligand.pdb
REMARK  5 active torsions:
REMARK  status: ('A' for Active; 'I' for Inactive)
REMARK    1  A    between atoms: C1_1  and  C2_2
REMARK    2  A    between atoms: C2_2  and  O2_4
REMARK    3  A    between atoms: O2_4  and  C3_5
REMARK    4  A    between atoms: C8_10  and  C9_11
REMARK    5  A    between atoms: C9_11  and  O4_13
REMARK                            x       y       z     vdW  Elec       q    Type
REMARK                         _______ _______ _______ _____ _____    ______ ____
ROOT
ATOM      1  C3  UNL     1      -4.741  -3.986   0.603  0.00  0.00    +0.000 A 
ATOM      2  C4  UNL     1      -5.007  -3.290  -0.592  0.00  0.00    +0.000 A 
ATOM      3  C5  UNL     1      -5.078  -1.897  -0.602  0.00  0.00    +0.000 A 
ATOM      4  C6  UNL     1      -4.898  -1.180   0.578  0.00  0.00    +0.000 A 
ATOM      5  C7  UNL     1      -4.654  -1.853   1.776  0.00  0.00    +0.000 A 
ATOM      6  C8  UNL     1      -4.578  -3.259   1.809  0.00  0.00    +0.000 A 
ENDROOT
BRANCH   6   7
ATOM      7  C9  UNL     1      -4.318  -3.936   3.108  0.00  0.00    +0.000 C 
ATOM      8  O3  UNL     1      -3.284  -3.675   3.779  0.00  0.00    +0.000 OA
BRANCH   7   9
ATOM      9  O4  UNL     1      -5.223  -4.873   3.600  0.00  0.00    +0.000 OA
ATOM     10  H8  UNL     1      -5.396  -5.740   3.106  0.00  0.00    +0.000 HD
ENDBRANCH   7   9
ENDBRANCH   6   7
BRANCH   1  11
ATOM     11  O2  UNL     1      -4.683  -5.390   0.621  0.00  0.00    +0.000 OA
BRANCH  11  13
ATOM     12  C1  UNL     1      -3.211  -7.241   1.414  0.00  0.00    +0.000 C 
ATOM     13  C2  UNL     1      -3.524  -6.155   0.442  0.00  0.00    +0.000 C 
ATOM     14  O1  UNL     1      -2.694  -5.876  -0.465  0.00  0.00    +0.000 OA
ENDBRANCH  11  13
ENDBRANCH   1  11
TORSDOF 4
ENDMDL
MODEL 7
REMARK VINA RESULT:    -3.816     13.922     14.846
REMARK INTER + INTRA:          -5.244
REMARK INTER:                  -4.651
REMARK INTRA:                  -0.593
REMARK UNBOUND:                -0.647
REMARK  Name = results/0213d392-5071-4956-925e-3e3483774929_ligand.pdb
REMARK  5 active torsions:
REMARK  status: ('A' for Active; 'I' for Inactive)
REMARK    1  A    between atoms: C1_1  and  C2_2
REMARK    2  A    between atoms: C2_2  and  O2_4
REMARK    3  A    between atoms: O2_4  and  C3_5
REMARK    4  A    between atoms: C8_10  and  C9_11
REMARK    5  A    between atoms: C9_11  and  O4_13
REMARK                            x       y       z     vdW  Elec       q    Type
REMARK                         _______ _______ _______ _____ _____    ______ ____
ROOT
ATOM      1  C3  UNL     1      -4.738  -2.625   0.870  0.00  0.00    +0.000 A 
ATOM      2  C4  UNL     1      -4.651  -1.898   2.074  0.00  0.00    +0.000 A 
ATOM      3  C5  UNL     1      -3.935  -2.405   3.159  0.00  0.00    +0.000 A 
ATOM      4  C6  UNL     1      -3.308  -3.644   3.065  0.00  0.00    +0.000 A 
ATOM      5  C7  UNL     1      -3.400  -4.388   1.887  0.00  0.00    +0.000 A 
ATOM      6  C8  UNL     1      -4.117  -3.896   0.779  0.00  0.00    +0.000 A 
ENDROOT
BRANCH   6   7
ATOM      7  C9  UNL     1      -4.190  -4.722  -0.456  0.00  0.00    +0.000 C 
ATOM      8  O3  UNL     1      -3.193  -5.380  -0.855  0.00  0.00    +0.000 OA
BRANCH   7   9
ATOM      9  O4  UNL     1      -5.372  -4.777  -1.189  0.00  0.00    +0.000 OA
ATOM     10  H8  UNL     1      -5.358  -4.945  -2.189  0.00  0.00    +0.000 HD
ENDBRANCH   7   9
ENDBRANCH   6   7
BRANCH   1  11
ATOM     11  O2  UNL     1      -5.469  -2.125  -0.221  0.00  0.00    +0.000 OA
BRANCH  11  13
ATOM     12  C1  UNL     1      -4.518   0.026  -1.052  0.00  0.00    +0.000 C 
ATOM     13  C2  UNL     1      -4.935  -1.386  -1.284  0.00  0.00    +0.000 C 
ATOM     14  O1  UNL     1      -4.893  -1.862  -2.451  0.00  0.00    +0.000 OA
ENDBRANCH  11  13
ENDBRANCH   1  11
TORSDOF 4
ENDMDL
MODEL 8
REMARK VINA RESULT:    -3.798      2.407      3.466
REMARK INTER + INTRA:          -5.223
REMARK INTER:                  -4.676
REMARK INTRA:                  -0.547
REMARK UNBOUND:                -0.647
REMARK  Name = results/0213d392-5071-4956-925e-3e3483774929_ligand.pdb
REMARK  5 active torsions:
REMARK  status: ('A' for Active; 'I' for Inactive)
REMARK    1  A    between atoms: C1_1  and  C2_2
REMARK    2  A    between atoms: C2_2  and  O2_4
REMARK    3  A    between atoms: O2_4  and  C3_5
REMARK    4  A    between atoms: C8_10  and  C9_11
REMARK    5  A    between atoms: C9_11  and  O4_13
REMARK                            x       y       z     vdW  Elec       q    Type
REMARK                         _______ _______ _______ _____ _____    ______ ____
ROOT
ATOM      1  C3  UNL     1       8.526  -5.882  -0.931  0.00  0.00    +0.000 A 
ATOM      2  C4  UNL     1       8.056  -5.822   0.396  0.00  0.00    +0.000 A 
ATOM      3  C5  UNL     1       7.960  -6.980   1.168  0.00  0.00    +0.000 A 
ATOM      4  C6  UNL     1       8.319  -8.212   0.627  0.00  0.00    +0.000 A 
ATOM      5  C7  UNL     1       8.769  -8.293  -0.692  0.00  0.00    +0.000 A 
ATOM      6  C8  UNL     1       8.873  -7.137  -1.490  0.00  0.00    +0.000 A 
ENDROOT
BRANCH   6   7
ATOM      7  C9  UNL     1       9.355  -7.270  -2.890  0.00  0.00    +0.000 C 
ATOM      8  O3  UNL     1      10.398  -7.926  -3.158  0.00  0.00    +0.000 OA
BRANCH   7   9
ATOM      9  O4  UNL     1       8.653  -6.666  -3.930  0.00  0.00    +0.000 OA
ATOM     10  H8  UNL     1       7.656  -6.810  -4.039  0.00  0.00    +0.000 HD
ENDBRANCH   7   9
ENDBRANCH   6   7
BRANCH   1  11
ATOM     11  O2  UNL     1       8.611  -4.720  -1.717  0.00  0.00    +0.000 OA
BRANCH  11  13
ATOM     12  C1  UNL     1      10.650  -3.847  -2.858  0.00  0.00    +0.000 C 
ATOM     13  C2  UNL     1       9.685  -3.822  -1.722  0.00  0.00    +0.000 C 
ATOM     14  O1  UNL     1       9.904  -3.064  -0.738  0.00  0.00    +0.000 OA
ENDBRANCH  11  13
ENDBRANCH   1  11
TORSDOF 4
ENDMDL
MODEL 9
REMARK VINA RESULT:    -3.732      1.936      4.286
REMARK INTER + INTRA:          -5.143
REMARK INTER:                  -4.734
REMARK INTRA:                  -0.409
REMARK UNBOUND:                -0.647
REMARK  Name = results/0213d392-5071-4956-925e-3e3483774929_ligand.pdb
REMARK  5 active torsions:
REMARK  status: ('A' for Active; 'I' for Inactive)
REMARK    1  A    between atoms: C1_1  and  C2_2
REMARK    2  A    between atoms: C2_2  and  O2_4
REMARK    3  A    between atoms: O2_4  and  C3_5
REMARK    4  A    between atoms: C8_10  and  C9_11
REMARK    5  A    between atoms: C9_11  and  O4_13
REMARK                            x       y       z     vdW  Elec       q    Type
REMARK                         _______ _______ _______ _____ _____    ______ ____
ROOT
ATOM      1  C3  UNL     1      10.195  -2.750   0.348  0.00  0.00    +0.000 A 
ATOM      2  C4  UNL     1      10.062  -3.670   1.406  0.00  0.00    +0.000 A 
ATOM      3  C5  UNL     1       9.481  -3.284   2.614  0.00  0.00    +0.000 A 
ATOM      4  C6  UNL     1       9.036  -1.977   2.789  0.00  0.00    +0.000 A 
ATOM      5  C7  UNL     1       9.177  -1.045   1.759  0.00  0.00    +0.000 A 
ATOM      6  C8  UNL     1       9.761  -1.413   0.531  0.00  0.00    +0.000 A 
ENDROOT
BRANCH   6   7
ATOM      7  C9  UNL     1       9.893  -0.388  -0.539  0.00  0.00    +0.000 C 
ATOM      8  O3  UNL     1      10.666   0.597  -0.401  0.00  0.00    +0.000 OA
BRANCH   7   9
ATOM      9  O4  UNL     1       9.157  -0.508  -1.715  0.00  0.00    +0.000 OA
ATOM     10  H8  UNL     1       8.550   0.241  -2.028  0.00  0.00    +0.000 HD
ENDBRANCH   7   9
ENDBRANCH   6   7
BRANCH   1  11
ATOM     11  O2  UNL     1      10.792  -3.130  -0.866  0.00  0.00    +0.000 OA
BRANCH  11  13
ATOM     12  C1  UNL     1      10.706  -3.669  -3.300  0.00  0.00    +0.000 C 
ATOM     13  C2  UNL     1      10.137  -3.769  -1.926  0.00  0.00    +0.000 C 
ATOM     14  O1  UNL     1       9.026  -4.341  -1.754  0.00  0.00    +0.000 OA
ENDBRANCH  11  13
ENDBRANCH   1  11
TORSDOF 4
ENDMDL
