MODEL 1
REMARK VINA RESULT:    -5.928      0.000      0.000
REMARK INTER + INTRA:          -8.529
REMARK INTER:                  -7.661
REMARK INTRA:                  -0.868
REMARK UNBOUND:                -0.868
REMARK  Name = C:\DDRIVE\PROJECT\authml\backend\results\ligand_1764476476305.pdb
REMARK  6 active torsions:
REMARK  status: ('A' for Active; 'I' for Inactive)
REMARK    1  A    between atoms: C_9  and  SE_10
REMARK    2  A    between atoms: SE_10  and  C_11
REMARK    3  A    between atoms: C_11  and  C_12
REMARK    4  A    between atoms: N_18  and  C_19
REMARK    5  A    between atoms: P_24  and  O_26
REMARK    6  A    between atoms: C_29  and  O_30
REMARK                            x       y       z     vdW  Elec       q    Type
REMARK                         _______ _______ _______ _____ _____    ______ ____
ROOT
ATOM      1  N   UNL     1      -2.744  -0.689  -5.991  0.00  0.00    +0.000 N 
ATOM      2  C   UNL     1      -2.456  -2.061  -5.821  0.00  0.00    +0.000 A 
ATOM      3  N   UNL     1      -1.515  -2.665  -6.607  0.00  0.00    +0.000 NA
ATOM      4  C   UNL     1      -1.203  -3.990  -6.453  0.00  0.00    +0.000 A 
ATOM      5  N   UNL     1      -1.822  -4.732  -5.494  0.00  0.00    +0.000 NA
ATOM      6  C   UNL     1      -2.761  -4.139  -4.716  0.00  0.00    +0.000 A 
ATOM      7  C   UNL     1      -3.098  -2.843  -4.858  0.00  0.00    +0.000 A 
ATOM      8  N   UNL     1      -4.064  -2.522  -3.977  0.00  0.00    +0.000 NA
ATOM      9  C   UNL     1      -4.289  -3.683  -3.297  0.00  0.00    +0.000 A 
ATOM     10  N   UNL     1      -3.486  -4.700  -3.728  0.00  0.00    +0.000 N 
ATOM     11  H   UNL     1      -3.434  -0.217  -5.391  0.00  0.00    +0.000 HD
ATOM     12  H   UNL     1      -2.230  -0.142  -6.696  0.00  0.00    +0.000 HD
ENDROOT
BRANCH  10  13
ATOM     13  C   UNL     1      -3.353  -6.087  -3.260  0.00  0.00    +0.000 C 
ATOM     14  O   UNL     1      -4.650  -6.667  -3.172  0.00  0.00    +0.000 OA
ATOM     15  C   UNL     1      -4.830  -6.998  -1.815  0.00  0.00    +0.000 C 
ATOM     16  C   UNL     1      -5.791  -8.167  -1.609  0.00  0.00    +0.000 C 
ATOM     17  O   UNL     1      -6.103  -8.373  -0.247  0.00  0.00    +0.000 OA
ATOM     18  P   UNL     1      -4.655  -8.336   0.748  0.00  0.00    +0.000 P 
ATOM     19  O   UNL     1      -4.145  -9.787   0.950  0.00  0.00    +0.000 OA
ATOM     20  O   UNL     1      -3.343  -7.377   0.103  0.00  0.00    +0.000 OA
ATOM     21  C   UNL     1      -3.447  -7.344  -1.297  0.00  0.00    +0.000 C 
ATOM     22  C   UNL     1      -2.704  -6.162  -1.867  0.00  0.00    +0.000 C 
BRANCH  18  23
ATOM     23  O   UNL     1      -5.058  -7.712   2.316  0.00  0.00    +0.000 OA
ATOM     24  H   UNL     1      -5.874  -7.171   2.157  0.00  0.00    +0.000 HD
ENDBRANCH  18  23
BRANCH  22  25
ATOM     25  O   UNL     1      -1.305  -6.304  -1.935  0.00  0.00    +0.000 OA
ATOM     26  H   UNL     1      -0.974  -5.835  -2.746  0.00  0.00    +0.000 HD
ENDBRANCH  22  25
ENDBRANCH  10  13
BRANCH   9  27
ATOM     27 SE   UNL     1      -5.706  -3.790  -1.967  0.00  0.00    +0.000 Se
BRANCH  27  28
ATOM     28  C   UNL     1      -5.321  -2.326  -0.713  0.00  0.00    +0.000 C 
BRANCH  28  29
ATOM     29  C   UNL     1      -4.732  -2.739   0.608  0.00  0.00    +0.000 A 
ATOM     30  C   UNL     1      -4.124  -4.003   0.755  0.00  0.00    +0.000 A 
ATOM     31  C   UNL     1      -3.537  -4.364   1.971  0.00  0.00    +0.000 A 
ATOM     32  C   UNL     1      -3.549  -3.472   3.047  0.00  0.00    +0.000 A 
ATOM     33  C   UNL     1      -4.148  -2.219   2.908  0.00  0.00    +0.000 A 
ATOM     34  C   UNL     1      -4.736  -1.853   1.694  0.00  0.00    +0.000 A 
ENDBRANCH  28  29
ENDBRANCH  27  28
ENDBRANCH   9  27
TORSDOF 6
ENDMDL
MODEL 2
REMARK VINA RESULT:    -5.795     13.416     14.975
REMARK INTER + INTRA:          -8.358
REMARK INTER:                  -7.909
REMARK INTRA:                  -0.448
REMARK UNBOUND:                -0.868
REMARK  Name = C:\DDRIVE\PROJECT\authml\backend\results\ligand_1764476476305.pdb
REMARK  6 active torsions:
REMARK  status: ('A' for Active; 'I' for Inactive)
REMARK    1  A    between atoms: C_9  and  SE_10
REMARK    2  A    between atoms: SE_10  and  C_11
REMARK    3  A    between atoms: C_11  and  C_12
REMARK    4  A    between atoms: N_18  and  C_19
REMARK    5  A    between atoms: P_24  and  O_26
REMARK    6  A    between atoms: C_29  and  O_30
REMARK                            x       y       z     vdW  Elec       q    Type
REMARK                         _______ _______ _______ _____ _____    ______ ____
ROOT
ATOM      1  N   UNL     1       8.629  -7.488  -0.777  0.00  0.00    +0.000 N 
ATOM      2  C   UNL     1       9.237  -6.332  -1.312  0.00  0.00    +0.000 A 
ATOM      3  N   UNL     1       9.567  -6.283  -2.638  0.00  0.00    +0.000 NA
ATOM      4  C   UNL     1      10.141  -5.168  -3.188  0.00  0.00    +0.000 A 
ATOM      5  N   UNL     1      10.382  -4.071  -2.418  0.00  0.00    +0.000 NA
ATOM      6  C   UNL     1      10.062  -4.116  -1.101  0.00  0.00    +0.000 A 
ATOM      7  C   UNL     1       9.512  -5.206  -0.532  0.00  0.00    +0.000 A 
ATOM      8  N   UNL     1       9.317  -4.988   0.782  0.00  0.00    +0.000 NA
ATOM      9  C   UNL     1       9.770  -3.716   0.975  0.00  0.00    +0.000 A 
ATOM     10  N   UNL     1      10.228  -3.148  -0.179  0.00  0.00    +0.000 N 
ATOM     11  H   UNL     1       8.355  -7.530   0.214  0.00  0.00    +0.000 HD
ATOM     12  H   UNL     1       8.421  -8.288  -1.392  0.00  0.00    +0.000 HD
ENDROOT
BRANCH  10  13
ATOM     13  C   UNL     1      10.755  -1.802  -0.447  0.00  0.00    +0.000 C 
ATOM     14  O   UNL     1      11.690  -1.465   0.572  0.00  0.00    +0.000 OA
ATOM     15  C   UNL     1      11.158  -0.332   1.219  0.00  0.00    +0.000 C 
ATOM     16  C   UNL     1      12.231   0.554   1.847  0.00  0.00    +0.000 C 
ATOM     17  O   UNL     1      11.681   1.584   2.642  0.00  0.00    +0.000 OA
ATOM     18  P   UNL     1      10.357   2.388   1.811  0.00  0.00    +0.000 P 
ATOM     19  O   UNL     1      10.907   3.645   1.086  0.00  0.00    +0.000 OA
ATOM     20  O   UNL     1       9.517   1.401   0.639  0.00  0.00    +0.000 OA
ATOM     21  C   UNL     1      10.398   0.425   0.147  0.00  0.00    +0.000 C 
ATOM     22  C   UNL     1       9.643  -0.739  -0.443  0.00  0.00    +0.000 C 
BRANCH  18  23
ATOM     23  O   UNL     1       9.201   2.936   2.983  0.00  0.00    +0.000 OA
ATOM     24  H   UNL     1       8.351   2.511   2.700  0.00  0.00    +0.000 HD
ENDBRANCH  18  23
BRANCH  22  25
ATOM     25  O   UNL     1       9.104  -0.523  -1.725  0.00  0.00    +0.000 OA
ATOM     26  H   UNL     1       9.834  -0.591  -2.396  0.00  0.00    +0.000 HD
ENDBRANCH  22  25
ENDBRANCH  10  13
BRANCH   9  27
ATOM     27 SE   UNL     1       9.824  -2.947   2.762  0.00  0.00    +0.000 Se
BRANCH  27  28
ATOM     28  C   UNL     1       9.081  -4.347   3.927  0.00  0.00    +0.000 C 
BRANCH  28  29
ATOM     29  C   UNL     1       7.978  -3.908   4.850  0.00  0.00    +0.000 A 
ATOM     30  C   UNL     1       6.786  -4.656   4.945  0.00  0.00    +0.000 A 
ATOM     31  C   UNL     1       5.782  -4.270   5.838  0.00  0.00    +0.000 A 
ATOM     32  C   UNL     1       5.957  -3.141   6.642  0.00  0.00    +0.000 A 
ATOM     33  C   UNL     1       7.135  -2.397   6.554  0.00  0.00    +0.000 A 
ATOM     34  C   UNL     1       8.142  -2.779   5.663  0.00  0.00    +0.000 A 
ENDBRANCH  28  29
ENDBRANCH  27  28
ENDBRANCH   9  27
TORSDOF 6
ENDMDL
MODEL 3
REMARK VINA RESULT:    -5.638      7.996     10.499
REMARK INTER + INTRA:          -8.155
REMARK INTER:                  -7.966
REMARK INTRA:                  -0.189
REMARK UNBOUND:                -0.868
REMARK  Name = C:\DDRIVE\PROJECT\authml\backend\results\ligand_1764476476305.pdb
REMARK  6 active torsions:
REMARK  status: ('A' for Active; 'I' for Inactive)
REMARK    1  A    between atoms: C_9  and  SE_10
REMARK    2  A    between atoms: SE_10  and  C_11
REMARK    3  A    between atoms: C_11  and  C_12
REMARK    4  A    between atoms: N_18  and  C_19
REMARK    5  A    between atoms: P_24  and  O_26
REMARK    6  A    between atoms: C_29  and  O_30
REMARK                            x       y       z     vdW  Elec       q    Type
REMARK                         _______ _______ _______ _____ _____    ______ ____
ROOT
ATOM      1  N   UNL     1      -9.080   0.598   4.050  0.00  0.00    +0.000 N 
ATOM      2  C   UNL     1      -9.200   1.497   2.968  0.00  0.00    +0.000 A 
ATOM      3  N   UNL     1     -10.162   2.468   2.987  0.00  0.00    +0.000 NA
ATOM      4  C   UNL     1     -10.290   3.364   1.959  0.00  0.00    +0.000 A 
ATOM      5  N   UNL     1      -9.441   3.311   0.896  0.00  0.00    +0.000 NA
ATOM      6  C   UNL     1      -8.489   2.346   0.868  0.00  0.00    +0.000 A 
ATOM      7  C   UNL     1      -8.354   1.443   1.858  0.00  0.00    +0.000 A 
ATOM      8  N   UNL     1      -7.350   0.593   1.567  0.00  0.00    +0.000 NA
ATOM      9  C   UNL     1      -6.887   1.030   0.361  0.00  0.00    +0.000 A 
ATOM     10  N   UNL     1      -7.569   2.123  -0.091  0.00  0.00    +0.000 N 
ATOM     11  H   UNL     1      -8.346  -0.123   4.058  0.00  0.00    +0.000 HD
ATOM     12  H   UNL     1      -9.709   0.688   4.861  0.00  0.00    +0.000 HD
ENDROOT
BRANCH  10  13
ATOM     13  C   UNL     1      -7.386   2.942  -1.298  0.00  0.00    +0.000 C 
ATOM     14  O   UNL     1      -6.208   2.509  -1.971  0.00  0.00    +0.000 OA
ATOM     15  C   UNL     1      -5.340   3.618  -1.973  0.00  0.00    +0.000 C 
ATOM     16  C   UNL     1      -4.365   3.609  -3.149  0.00  0.00    +0.000 C 
ATOM     17  O   UNL     1      -3.387   4.622  -3.044  0.00  0.00    +0.000 OA
ATOM     18  P   UNL     1      -4.113   6.163  -2.612  0.00  0.00    +0.000 P 
ATOM     19  O   UNL     1      -4.387   6.971  -3.907  0.00  0.00    +0.000 OA
ATOM     20  O   UNL     1      -5.606   6.045  -1.711  0.00  0.00    +0.000 OA
ATOM     21  C   UNL     1      -6.241   4.836  -2.035  0.00  0.00    +0.000 C 
ATOM     22  C   UNL     1      -7.219   4.433  -0.960  0.00  0.00    +0.000 C 
BRANCH  18  23
ATOM     23  O   UNL     1      -2.983   7.078  -1.666  0.00  0.00    +0.000 OA
ATOM     24  H   UNL     1      -2.452   6.388  -1.191  0.00  0.00    +0.000 HD
ENDBRANCH  18  23
BRANCH  22  25
ATOM     25  O   UNL     1      -8.445   5.125  -0.968  0.00  0.00    +0.000 OA
ATOM     26  H   UNL     1      -9.186   4.464  -0.960  0.00  0.00    +0.000 HD
ENDBRANCH  22  25
ENDBRANCH  10  13
BRANCH   9  27
ATOM     27 SE   UNL     1      -5.489   0.051  -0.574  0.00  0.00    +0.000 Se
BRANCH  27  28
ATOM     28  C   UNL     1      -5.852  -1.839  -0.170  0.00  0.00    +0.000 C 
BRANCH  28  29
ATOM     29  C   UNL     1      -4.943  -2.473   0.847  0.00  0.00    +0.000 A 
ATOM     30  C   UNL     1      -4.680  -1.826   2.072  0.00  0.00    +0.000 A 
ATOM     31  C   UNL     1      -3.872  -2.439   3.033  0.00  0.00    +0.000 A 
ATOM     32  C   UNL     1      -3.323  -3.700   2.784  0.00  0.00    +0.000 A 
ATOM     33  C   UNL     1      -3.580  -4.347   1.575  0.00  0.00    +0.000 A 
ATOM     34  C   UNL     1      -4.388  -3.738   0.610  0.00  0.00    +0.000 A 
ENDBRANCH  28  29
ENDBRANCH  27  28
ENDBRANCH   9  27
TORSDOF 6
ENDMDL
MODEL 4
REMARK VINA RESULT:    -5.602     12.538     14.423
REMARK INTER + INTRA:          -8.108
REMARK INTER:                  -7.360
REMARK INTRA:                  -0.748
REMARK UNBOUND:                -0.868
REMARK  Name = C:\DDRIVE\PROJECT\authml\backend\results\ligand_1764476476305.pdb
REMARK  6 active torsions:
REMARK  status: ('A' for Active; 'I' for Inactive)
REMARK    1  A    between atoms: C_9  and  SE_10
REMARK    2  A    between atoms: SE_10  and  C_11
REMARK    3  A    between atoms: C_11  and  C_12
REMARK    4  A    between atoms: N_18  and  C_19
REMARK    5  A    between atoms: P_24  and  O_26
REMARK    6  A    between atoms: C_29  and  O_30
REMARK                            x       y       z     vdW  Elec       q    Type
REMARK                         _______ _______ _______ _____ _____    ______ ____
ROOT
ATOM      1  N   UNL     1       5.417   2.398   5.057  0.00  0.00    +0.000 N 
ATOM      2  C   UNL     1       4.975   1.384   5.934  0.00  0.00    +0.000 A 
ATOM      3  N   UNL     1       3.790   1.524   6.600  0.00  0.00    +0.000 NA
ATOM      4  C   UNL     1       3.327   0.549   7.443  0.00  0.00    +0.000 A 
ATOM      5  N   UNL     1       4.042  -0.597   7.622  0.00  0.00    +0.000 NA
ATOM      6  C   UNL     1       5.222  -0.738   6.969  0.00  0.00    +0.000 A 
ATOM      7  C   UNL     1       5.706   0.213   6.148  0.00  0.00    +0.000 A 
ATOM      8  N   UNL     1       6.896  -0.175   5.650  0.00  0.00    +0.000 NA
ATOM      9  C   UNL     1       7.101  -1.403   6.207  0.00  0.00    +0.000 A 
ATOM     10  N   UNL     1       6.073  -1.782   7.021  0.00  0.00    +0.000 N 
ATOM     11  H   UNL     1       6.297   2.295   4.532  0.00  0.00    +0.000 HD
ATOM     12  H   UNL     1       4.836   3.235   4.909  0.00  0.00    +0.000 HD
ENDROOT
BRANCH  10  13
ATOM     13  C   UNL     1       5.848  -3.022   7.777  0.00  0.00    +0.000 C 
ATOM     14  O   UNL     1       6.985  -3.269   8.599  0.00  0.00    +0.000 OA
ATOM     15  C   UNL     1       7.516  -4.497   8.157  0.00  0.00    +0.000 C 
ATOM     16  C   UNL     1       8.272  -5.247   9.251  0.00  0.00    +0.000 C 
ATOM     17  O   UNL     1       8.948  -6.383   8.756  0.00  0.00    +0.000 OA
ATOM     18  P   UNL     1       7.911  -7.330   7.699  0.00  0.00    +0.000 P 
ATOM     19  O   UNL     1       7.241  -8.457   8.529  0.00  0.00    +0.000 OA
ATOM     20  O   UNL     1       6.655  -6.419   6.894  0.00  0.00    +0.000 OA
ATOM     21  C   UNL     1       6.324  -5.304   7.680  0.00  0.00    +0.000 C 
ATOM     22  C   UNL     1       5.660  -4.234   6.849  0.00  0.00    +0.000 C 
BRANCH  18  23
ATOM     23  O   UNL     1       8.884  -8.096   6.485  0.00  0.00    +0.000 OA
ATOM     24  H   UNL     1       9.356  -7.344   6.044  0.00  0.00    +0.000 HD
ENDBRANCH  18  23
BRANCH  22  25
ATOM     25  O   UNL     1       4.308  -4.464   6.536  0.00  0.00    +0.000 OA
ATOM     26  H   UNL     1       3.964  -3.693   6.012  0.00  0.00    +0.000 HD
ENDBRANCH  22  25
ENDBRANCH  10  13
BRANCH   9  27
ATOM     27 SE   UNL     1       8.767  -2.361   5.899  0.00  0.00    +0.000 Se
BRANCH  27  28
ATOM     28  C   UNL     1       9.055  -2.244   3.957  0.00  0.00    +0.000 C 
BRANCH  28  29
ATOM     29  C   UNL     1       8.739  -3.490   3.177  0.00  0.00    +0.000 A 
ATOM     30  C   UNL     1       7.627  -4.286   3.520  0.00  0.00    +0.000 A 
ATOM     31  C   UNL     1       7.310  -5.417   2.764  0.00  0.00    +0.000 A 
ATOM     32  C   UNL     1       8.095  -5.764   1.661  0.00  0.00    +0.000 A 
ATOM     33  C   UNL     1       9.196  -4.980   1.314  0.00  0.00    +0.000 A 
ATOM     34  C   UNL     1       9.517  -3.847   2.067  0.00  0.00    +0.000 A 
ENDBRANCH  28  29
ENDBRANCH  27  28
ENDBRANCH   9  27
TORSDOF 6
ENDMDL
MODEL 5
REMARK VINA RESULT:    -5.597      7.126      9.641
REMARK INTER + INTRA:          -8.102
REMARK INTER:                  -7.512
REMARK INTRA:                  -0.590
REMARK UNBOUND:                -0.868
REMARK  Name = C:\DDRIVE\PROJECT\authml\backend\results\ligand_1764476476305.pdb
REMARK  6 active torsions:
REMARK  status: ('A' for Active; 'I' for Inactive)
REMARK    1  A    between atoms: C_9  and  SE_10
REMARK    2  A    between atoms: SE_10  and  C_11
REMARK    3  A    between atoms: C_11  and  C_12
REMARK    4  A    between atoms: N_18  and  C_19
REMARK    5  A    between atoms: P_24  and  O_26
REMARK    6  A    between atoms: C_29  and  O_30
REMARK                            x       y       z     vdW  Elec       q    Type
REMARK                         _______ _______ _______ _____ _____    ______ ____
ROOT
ATOM      1  N   UNL     1      -9.001   2.039   3.555  0.00  0.00    +0.000 N 
ATOM      2  C   UNL     1      -8.809   2.877   2.435  0.00  0.00    +0.000 A 
ATOM      3  N   UNL     1      -9.415   4.101   2.384  0.00  0.00    +0.000 NA
ATOM      4  C   UNL     1      -9.232   4.942   1.319  0.00  0.00    +0.000 A 
ATOM      5  N   UNL     1      -8.422   4.575   0.288  0.00  0.00    +0.000 NA
ATOM      6  C   UNL     1      -7.823   3.359   0.330  0.00  0.00    +0.000 A 
ATOM      7  C   UNL     1      -8.000   2.507   1.358  0.00  0.00    +0.000 A 
ATOM      8  N   UNL     1      -7.309   1.372   1.136  0.00  0.00    +0.000 NA
ATOM      9  C   UNL     1      -6.708   1.584  -0.069  0.00  0.00    +0.000 A 
ATOM     10  N   UNL     1      -7.000   2.813  -0.587  0.00  0.00    +0.000 N 
ATOM     11  H   UNL     1      -8.533   1.125   3.616  0.00  0.00    +0.000 HD
ATOM     12  H   UNL     1      -9.586   2.360   4.339  0.00  0.00    +0.000 HD
ENDROOT
BRANCH  10  13
ATOM     13  C   UNL     1      -6.544   3.475  -1.818  0.00  0.00    +0.000 C 
ATOM     14  O   UNL     1      -6.879   2.652  -2.931  0.00  0.00    +0.000 OA
ATOM     15  C   UNL     1      -5.653   2.305  -3.532  0.00  0.00    +0.000 C 
ATOM     16  C   UNL     1      -5.783   2.017  -5.026  0.00  0.00    +0.000 C 
ATOM     17  O   UNL     1      -4.592   1.499  -5.580  0.00  0.00    +0.000 OA
ATOM     18  P   UNL     1      -3.193   2.425  -5.057  0.00  0.00    +0.000 P 
ATOM     19  O   UNL     1      -2.873   3.502  -6.127  0.00  0.00    +0.000 OA
ATOM     20  O   UNL     1      -3.375   3.222  -3.512  0.00  0.00    +0.000 OA
ATOM     21  C   UNL     1      -4.736   3.488  -3.292  0.00  0.00    +0.000 C 
ATOM     22  C   UNL     1      -5.020   3.685  -1.824  0.00  0.00    +0.000 C 
BRANCH  18  23
ATOM     23  O   UNL     1      -1.818   1.372  -4.961  0.00  0.00    +0.000 OA
ATOM     24  H   UNL     1      -1.245   1.654  -5.720  0.00  0.00    +0.000 HD
ENDBRANCH  18  23
BRANCH  22  25
ATOM     25  O   UNL     1      -4.650   4.937  -1.300  0.00  0.00    +0.000 OA
ATOM     26  H   UNL     1      -4.220   4.800  -0.415  0.00  0.00    +0.000 HD
ENDBRANCH  22  25
ENDBRANCH  10  13
BRANCH   9  27
ATOM     27 SE   UNL     1      -5.671   0.171  -0.917  0.00  0.00    +0.000 Se
BRANCH  27  28
ATOM     28  C   UNL     1      -6.297  -1.485  -0.062  0.00  0.00    +0.000 C 
BRANCH  28  29
ATOM     29  C   UNL     1      -5.291  -2.189   0.807  0.00  0.00    +0.000 A 
ATOM     30  C   UNL     1      -4.976  -1.685   2.086  0.00  0.00    +0.000 A 
ATOM     31  C   UNL     1      -4.075  -2.368   2.909  0.00  0.00    +0.000 A 
ATOM     32  C   UNL     1      -3.484  -3.554   2.467  0.00  0.00    +0.000 A 
ATOM     33  C   UNL     1      -3.793  -4.059   1.203  0.00  0.00    +0.000 A 
ATOM     34  C   UNL     1      -4.693  -3.381   0.376  0.00  0.00    +0.000 A 
ENDBRANCH  28  29
ENDBRANCH  27  28
ENDBRANCH   9  27
TORSDOF 6
ENDMDL
MODEL 6
REMARK VINA RESULT:    -5.548     12.824     14.401
REMARK INTER + INTRA:          -8.038
REMARK INTER:                  -7.657
REMARK INTRA:                  -0.381
REMARK UNBOUND:                -0.868
REMARK  Name = C:\DDRIVE\PROJECT\authml\backend\results\ligand_1764476476305.pdb
REMARK  6 active torsions:
REMARK  status: ('A' for Active; 'I' for Inactive)
REMARK    1  A    between atoms: C_9  and  SE_10
REMARK    2  A    between atoms: SE_10  and  C_11
REMARK    3  A    between atoms: C_11  and  C_12
REMARK    4  A    between atoms: N_18  and  C_19
REMARK    5  A    between atoms: P_24  and  O_26
REMARK    6  A    between atoms: C_29  and  O_30
REMARK                            x       y       z     vdW  Elec       q    Type
REMARK                         _______ _______ _______ _____ _____    ______ ____
ROOT
ATOM      1  N   UNL     1      10.390  -0.567  -1.316  0.00  0.00    +0.000 N 
ATOM      2  C   UNL     1      10.327  -0.441   0.089  0.00  0.00    +0.000 A 
ATOM      3  N   UNL     1      10.474   0.786   0.673  0.00  0.00    +0.000 NA
ATOM      4  C   UNL     1      10.400   0.941   2.032  0.00  0.00    +0.000 A 
ATOM      5  N   UNL     1      10.161  -0.136   2.832  0.00  0.00    +0.000 NA
ATOM      6  C   UNL     1      10.021  -1.357   2.258  0.00  0.00    +0.000 A 
ATOM      7  C   UNL     1      10.107  -1.537   0.926  0.00  0.00    +0.000 A 
ATOM      8  N   UNL     1       9.951  -2.842   0.630  0.00  0.00    +0.000 NA
ATOM      9  C   UNL     1       9.764  -3.434   1.844  0.00  0.00    +0.000 A 
ATOM     10  N   UNL     1       9.793  -2.535   2.871  0.00  0.00    +0.000 N 
ATOM     11  H   UNL     1      10.259  -1.481  -1.770  0.00  0.00    +0.000 HD
ATOM     12  H   UNL     1      10.530   0.271  -1.898  0.00  0.00    +0.000 HD
ENDROOT
BRANCH  10  13
ATOM     13  C   UNL     1       9.593  -2.714   4.316  0.00  0.00    +0.000 C 
ATOM     14  O   UNL     1       9.518  -4.107   4.598  0.00  0.00    +0.000 OA
ATOM     15  C   UNL     1       8.233  -4.319   5.135  0.00  0.00    +0.000 C 
ATOM     16  C   UNL     1       8.172  -5.519   6.077  0.00  0.00    +0.000 C 
ATOM     17  O   UNL     1       6.851  -5.831   6.467  0.00  0.00    +0.000 OA
ATOM     18  P   UNL     1       5.973  -4.385   6.946  0.00  0.00    +0.000 P 
ATOM     19  O   UNL     1       6.074  -4.221   8.485  0.00  0.00    +0.000 OA
ATOM     20  O   UNL     1       6.529  -2.906   6.198  0.00  0.00    +0.000 OA
ATOM     21  C   UNL     1       7.888  -3.041   5.873  0.00  0.00    +0.000 C 
ATOM     22  C   UNL     1       8.289  -2.060   4.801  0.00  0.00    +0.000 C 
BRANCH  18  23
ATOM     23  O   UNL     1       4.293  -4.586   6.560  0.00  0.00    +0.000 OA
ATOM     24  H   UNL     1       4.297  -5.189   5.774  0.00  0.00    +0.000 HD
ENDBRANCH  18  23
BRANCH  22  25
ATOM     25  O   UNL     1       8.482  -0.735   5.235  0.00  0.00    +0.000 OA
ATOM     26  H   UNL     1       8.444  -0.714   6.228  0.00  0.00    +0.000 HD
ENDBRANCH  22  25
ENDBRANCH  10  13
BRANCH   9  27
ATOM     27 SE   UNL     1       9.609  -5.369   1.986  0.00  0.00    +0.000 Se
BRANCH  27  28
ATOM     28  C   UNL     1       8.160  -5.843   0.744  0.00  0.00    +0.000 C 
BRANCH  28  29
ATOM     29  C   UNL     1       8.594  -6.240  -0.640  0.00  0.00    +0.000 A 
ATOM     30  C   UNL     1       8.968  -7.571  -0.917  0.00  0.00    +0.000 A 
ATOM     31  C   UNL     1       9.326  -7.947  -2.215  0.00  0.00    +0.000 A 
ATOM     32  C   UNL     1       9.311  -7.003  -3.246  0.00  0.00    +0.000 A 
ATOM     33  C   UNL     1       8.940  -5.684  -2.979  0.00  0.00    +0.000 A 
ATOM     34  C   UNL     1       8.581  -5.304  -1.683  0.00  0.00    +0.000 A 
ENDBRANCH  28  29
ENDBRANCH  27  28
ENDBRANCH   9  27
TORSDOF 6
ENDMDL
MODEL 7
REMARK VINA RESULT:    -5.360      4.994      7.961
REMARK INTER + INTRA:          -7.794
REMARK INTER:                  -7.213
REMARK INTRA:                  -0.582
REMARK UNBOUND:                -0.868
REMARK  Name = C:\DDRIVE\PROJECT\authml\backend\results\ligand_1764476476305.pdb
REMARK  6 active torsions:
REMARK  status: ('A' for Active; 'I' for Inactive)
REMARK    1  A    between atoms: C_9  and  SE_10
REMARK    2  A    between atoms: SE_10  and  C_11
REMARK    3  A    between atoms: C_11  and  C_12
REMARK    4  A    between atoms: N_18  and  C_19
REMARK    5  A    between atoms: P_24  and  O_26
REMARK    6  A    between atoms: C_29  and  O_30
REMARK                            x       y       z     vdW  Elec       q    Type
REMARK                         _______ _______ _______ _____ _____    ______ ____
ROOT
ATOM      1  N   UNL     1      -9.041   4.102   0.665  0.00  0.00    +0.000 N 
ATOM      2  C   UNL     1      -8.931   3.007   1.549  0.00  0.00    +0.000 A 
ATOM      3  N   UNL     1      -9.621   3.007   2.729  0.00  0.00    +0.000 NA
ATOM      4  C   UNL     1      -9.548   1.951   3.598  0.00  0.00    +0.000 A 
ATOM      5  N   UNL     1      -8.788   0.863   3.289  0.00  0.00    +0.000 NA
ATOM      6  C   UNL     1      -8.096   0.860   2.123  0.00  0.00    +0.000 A 
ATOM      7  C   UNL     1      -8.139   1.894   1.261  0.00  0.00    +0.000 A 
ATOM      8  N   UNL     1      -7.348   1.638   0.200  0.00  0.00    +0.000 NA
ATOM      9  C   UNL     1      -6.833   0.403   0.465  0.00  0.00    +0.000 A 
ATOM     10  N   UNL     1      -7.289  -0.108   1.646  0.00  0.00    +0.000 N 
ATOM     11  H   UNL     1      -8.545   4.105  -0.236  0.00  0.00    +0.000 HD
ATOM     12  H   UNL     1      -9.656   4.893   0.905  0.00  0.00    +0.000 HD
ENDROOT
BRANCH  10  13
ATOM     13  C   UNL     1      -7.041  -1.402   2.297  0.00  0.00    +0.000 C 
ATOM     14  O   UNL     1      -5.748  -1.376   2.892  0.00  0.00    +0.000 OA
ATOM     15  C   UNL     1      -5.009  -2.386   2.245  0.00  0.00    +0.000 C 
ATOM     16  C   UNL     1      -3.897  -2.962   3.119  0.00  0.00    +0.000 C 
ATOM     17  O   UNL     1      -3.053  -3.840   2.405  0.00  0.00    +0.000 OA
ATOM     18  P   UNL     1      -3.987  -4.974   1.439  0.00  0.00    +0.000 P 
ATOM     19  O   UNL     1      -4.177  -6.285   2.246  0.00  0.00    +0.000 OA
ATOM     20  O   UNL     1      -5.562  -4.396   0.948  0.00  0.00    +0.000 OA
ATOM     21  C   UNL     1      -6.019  -3.459   1.887  0.00  0.00    +0.000 C 
ATOM     22  C   UNL     1      -7.077  -2.565   1.291  0.00  0.00    +0.000 C 
BRANCH  18  23
ATOM     23  O   UNL     1      -3.090  -5.376   0.010  0.00  0.00    +0.000 OA
ATOM     24  H   UNL     1      -3.500  -6.223  -0.302  0.00  0.00    +0.000 HD
ENDBRANCH  18  23
BRANCH  22  25
ATOM     25  O   UNL     1      -8.359  -3.138   1.180  0.00  0.00    +0.000 OA
ATOM     26  H   UNL     1      -8.763  -2.854   0.318  0.00  0.00    +0.000 HD
ENDBRANCH  22  25
ENDBRANCH  10  13
BRANCH   9  27
ATOM     27 SE   UNL     1      -5.510  -0.390  -0.722  0.00  0.00    +0.000 Se
BRANCH  27  28
ATOM     28  C   UNL     1      -4.822   1.120  -1.777  0.00  0.00    +0.000 C 
BRANCH  28  29
ATOM     29  C   UNL     1      -3.925   0.755  -2.928  0.00  0.00    +0.000 A 
ATOM     30  C   UNL     1      -3.844  -0.581  -3.373  0.00  0.00    +0.000 A 
ATOM     31  C   UNL     1      -3.046  -0.909  -4.473  0.00  0.00    +0.000 A 
ATOM     32  C   UNL     1      -2.326   0.087  -5.138  0.00  0.00    +0.000 A 
ATOM     33  C   UNL     1      -2.404   1.412  -4.704  0.00  0.00    +0.000 A 
ATOM     34  C   UNL     1      -3.201   1.745  -3.605  0.00  0.00    +0.000 A 
ENDBRANCH  28  29
ENDBRANCH  27  28
ENDBRANCH   9  27
TORSDOF 6
ENDMDL
MODEL 8
REMARK VINA RESULT:    -5.336     13.505     14.757
REMARK INTER + INTRA:          -7.764
REMARK INTER:                  -7.485
REMARK INTRA:                  -0.279
REMARK UNBOUND:                -0.868
REMARK  Name = C:\DDRIVE\PROJECT\authml\backend\results\ligand_1764476476305.pdb
REMARK  6 active torsions:
REMARK  status: ('A' for Active; 'I' for Inactive)
REMARK    1  A    between atoms: C_9  and  SE_10
REMARK    2  A    between atoms: SE_10  and  C_11
REMARK    3  A    between atoms: C_11  and  C_12
REMARK    4  A    between atoms: N_18  and  C_19
REMARK    5  A    between atoms: P_24  and  O_26
REMARK    6  A    between atoms: C_29  and  O_30
REMARK                            x       y       z     vdW  Elec       q    Type
REMARK                         _______ _______ _______ _____ _____    ______ ____
ROOT
ATOM      1  N   UNL     1       4.896  -4.154   7.450  0.00  0.00    +0.000 N 
ATOM      2  C   UNL     1       6.080  -4.306   6.695  0.00  0.00    +0.000 A 
ATOM      3  N   UNL     1       6.572  -5.555   6.438  0.00  0.00    +0.000 NA
ATOM      4  C   UNL     1       7.708  -5.735   5.695  0.00  0.00    +0.000 A 
ATOM      5  N   UNL     1       8.365  -4.659   5.180  0.00  0.00    +0.000 NA
ATOM      6  C   UNL     1       7.886  -3.417   5.437  0.00  0.00    +0.000 A 
ATOM      7  C   UNL     1       6.780  -3.214   6.179  0.00  0.00    +0.000 A 
ATOM      8  N   UNL     1       6.541  -1.893   6.292  0.00  0.00    +0.000 NA
ATOM      9  C   UNL     1       7.551  -1.314   5.581  0.00  0.00    +0.000 A 
ATOM     10  N   UNL     1       8.393  -2.236   5.030  0.00  0.00    +0.000 N 
ATOM     11  H   UNL     1       4.503  -3.220   7.631  0.00  0.00    +0.000 HD
ATOM     12  H   UNL     1       4.397  -4.987   7.791  0.00  0.00    +0.000 HD
ENDROOT
BRANCH  10  13
ATOM     13  C   UNL     1       9.568  -2.073   4.162  0.00  0.00    +0.000 C 
ATOM     14  O   UNL     1       9.746  -0.686   3.890  0.00  0.00    +0.000 OA
ATOM     15  C   UNL     1       9.607  -0.549   2.495  0.00  0.00    +0.000 C 
ATOM     16  C   UNL     1      10.378   0.643   1.934  0.00  0.00    +0.000 C 
ATOM     17  O   UNL     1      10.089   0.878   0.571  0.00  0.00    +0.000 OA
ATOM     18  P   UNL     1      10.132  -0.617  -0.353  0.00  0.00    +0.000 P 
ATOM     19  O   UNL     1      11.540  -0.778  -0.984  0.00  0.00    +0.000 OA
ATOM     20  O   UNL     1       9.772  -2.060   0.566  0.00  0.00    +0.000 OA
ATOM     21  C   UNL     1      10.125  -1.847   1.908  0.00  0.00    +0.000 C 
ATOM     22  C   UNL     1       9.394  -2.801   2.818  0.00  0.00    +0.000 C 
BRANCH  18  23
ATOM     23  O   UNL     1       8.993  -0.511  -1.658  0.00  0.00    +0.000 OA
ATOM     24  H   UNL     1       8.823  -1.455  -1.906  0.00  0.00    +0.000 HD
ENDBRANCH  18  23
BRANCH  22  25
ATOM     25  O   UNL     1       9.901  -4.114   2.851  0.00  0.00    +0.000 OA
ATOM     26  H   UNL     1       9.809  -4.470   3.774  0.00  0.00    +0.000 HD
ENDBRANCH  22  25
ENDBRANCH  10  13
BRANCH   9  27
ATOM     27 SE   UNL     1       7.738   0.623   5.529  0.00  0.00    +0.000 Se
BRANCH  27  28
ATOM     28  C   UNL     1       5.997   1.272   4.886  0.00  0.00    +0.000 C 
BRANCH  28  29
ATOM     29  C   UNL     1       4.931   1.422   5.937  0.00  0.00    +0.000 A 
ATOM     30  C   UNL     1       3.902   0.464   6.051  0.00  0.00    +0.000 A 
ATOM     31  C   UNL     1       2.939   0.581   7.059  0.00  0.00    +0.000 A 
ATOM     32  C   UNL     1       2.995   1.649   7.958  0.00  0.00    +0.000 A 
ATOM     33  C   UNL     1       4.012   2.600   7.852  0.00  0.00    +0.000 A 
ATOM     34  C   UNL     1       4.976   2.487   6.847  0.00  0.00    +0.000 A 
ENDBRANCH  28  29
ENDBRANCH  27  28
ENDBRANCH   9  27
TORSDOF 6
ENDMDL
MODEL 9
REMARK VINA RESULT:    -5.270     12.575     13.598
REMARK INTER + INTRA:          -7.679
REMARK INTER:                  -7.291
REMARK INTRA:                  -0.388
REMARK UNBOUND:                -0.868
REMARK  Name = C:\DDRIVE\PROJECT\authml\backend\results\ligand_1764476476305.pdb
REMARK  6 active torsions:
REMARK  status: ('A' for Active; 'I' for Inactive)
REMARK    1  A    between atoms: C_9  and  SE_10
REMARK    2  A    between atoms: SE_10  and  C_11
REMARK    3  A    between atoms: C_11  and  C_12
REMARK    4  A    between atoms: N_18  and  C_19
REMARK    5  A    between atoms: P_24  and  O_26
REMARK    6  A    between atoms: C_29  and  O_30
REMARK                            x       y       z     vdW  Elec       q    Type
REMARK                         _______ _______ _______ _____ _____    ______ ____
ROOT
ATOM      1  N   UNL     1       9.591   0.673   0.222  0.00  0.00    +0.000 N 
ATOM      2  C   UNL     1       9.563  -0.575   0.880  0.00  0.00    +0.000 A 
ATOM      3  N   UNL     1       9.941  -1.708   0.216  0.00  0.00    +0.000 NA
ATOM      4  C   UNL     1       9.941  -2.930   0.834  0.00  0.00    +0.000 A 
ATOM      5  N   UNL     1       9.574  -3.036   2.141  0.00  0.00    +0.000 NA
ATOM      6  C   UNL     1       9.192  -1.916   2.804  0.00  0.00    +0.000 A 
ATOM      7  C   UNL     1       9.167  -0.706   2.213  0.00  0.00    +0.000 A 
ATOM      8  N   UNL     1       8.732   0.221   3.088  0.00  0.00    +0.000 NA
ATOM      9  C   UNL     1       8.500  -0.487   4.230  0.00  0.00    +0.000 A 
ATOM     10  N   UNL     1       8.787  -1.814   4.085  0.00  0.00    +0.000 N 
ATOM     11  H   UNL     1       9.330   1.537   0.718  0.00  0.00    +0.000 HD
ATOM     12  H   UNL     1       9.913   0.729  -0.754  0.00  0.00    +0.000 HD
ENDROOT
BRANCH  10  13
ATOM     13  C   UNL     1       8.735  -2.923   5.048  0.00  0.00    +0.000 C 
ATOM     14  O   UNL     1       7.590  -3.722   4.765  0.00  0.00    +0.000 OA
ATOM     15  C   UNL     1       6.780  -3.649   5.915  0.00  0.00    +0.000 C 
ATOM     16  C   UNL     1       5.895  -4.880   6.099  0.00  0.00    +0.000 C 
ATOM     17  O   UNL     1       4.962  -4.721   7.147  0.00  0.00    +0.000 OA
ATOM     18  P   UNL     1       5.729  -4.058   8.583  0.00  0.00    +0.000 P 
ATOM     19  O   UNL     1       6.137  -5.225   9.520  0.00  0.00    +0.000 OA
ATOM     20  O   UNL     1       7.144  -3.079   8.276  0.00  0.00    +0.000 OA
ATOM     21  C   UNL     1       7.741  -3.502   7.078  0.00  0.00    +0.000 C 
ATOM     22  C   UNL     1       8.616  -2.420   6.497  0.00  0.00    +0.000 C 
BRANCH  18  23
ATOM     23  O   UNL     1       4.578  -3.087   9.445  0.00  0.00    +0.000 OA
ATOM     24  H   UNL     1       5.130  -2.574  10.089  0.00  0.00    +0.000 HD
ENDBRANCH  18  23
BRANCH  22  25
ATOM     25  O   UNL     1       9.871  -2.262   7.114  0.00  0.00    +0.000 OA
ATOM     26  H   UNL     1      10.487  -2.963   6.773  0.00  0.00    +0.000 HD
ENDBRANCH  22  25
ENDBRANCH  10  13
BRANCH   9  27
ATOM     27 SE   UNL     1       7.729   0.381   5.792  0.00  0.00    +0.000 Se
BRANCH  27  28
ATOM     28  C   UNL     1       6.149   1.328   5.104  0.00  0.00    +0.000 C 
BRANCH  28  29
ATOM     29  C   UNL     1       4.932   1.289   5.987  0.00  0.00    +0.000 A 
ATOM     30  C   UNL     1       4.085   0.161   5.986  0.00  0.00    +0.000 A 
ATOM     31  C   UNL     1       2.981   0.110   6.842  0.00  0.00    +0.000 A 
ATOM     32  C   UNL     1       2.713   1.177   7.704  0.00  0.00    +0.000 A 
ATOM     33  C   UNL     1       3.549   2.295   7.711  0.00  0.00    +0.000 A 
ATOM     34  C   UNL     1       4.654   2.351   6.858  0.00  0.00    +0.000 A 
ENDBRANCH  28  29
ENDBRANCH  27  28
ENDBRANCH   9  27
TORSDOF 6
ENDMDL
