MODEL 1
REMARK VINA RESULT:    -2.943      0.000      0.000
REMARK INTER + INTRA:          -3.613
REMARK INTER:                  -3.459
REMARK INTRA:                  -0.154
REMARK UNBOUND:                -0.154
REMARK  Name = C:\DDRIVE\PROJECT\RMPRF\authml\backend\results\ligand_1764561140128.pdb
REMARK  6 active torsions:
REMARK  status: ('A' for Active; 'I' for Inactive)
REMARK    1  A    between atoms: C_1  and  C_2
REMARK    2  A    between atoms: C_2  and  N_3
REMARK    3  A    between atoms: N_3  and  C_4
REMARK    4  A    between atoms: N_3  and  C_6
REMARK    5  A    between atoms: C_4  and  C_5
REMARK    6  A    between atoms: C_6  and  C_7
REMARK                            x       y       z     vdW  Elec       q    Type
REMARK                         _______ _______ _______ _____ _____    ______ ____
ROOT
ATOM      1  N   UNL     1      -4.475  -3.267   2.169  0.00  0.00    +0.000 NA
ENDROOT
BRANCH   1   3
ATOM      2  C   UNL     1      -5.911  -1.329   2.840  0.00  0.00    +0.000 C 
ATOM      3  C   UNL     1      -4.556  -1.806   2.323  0.00  0.00    +0.000 C 
ENDBRANCH   1   3
BRANCH   1   4
ATOM      4  C   UNL     1      -4.143  -3.707   0.803  0.00  0.00    +0.000 C 
ATOM      5  C   UNL     1      -3.515  -5.092   0.663  0.00  0.00    +0.000 C 
ENDBRANCH   1   4
BRANCH   1   6
ATOM      6  C   UNL     1      -3.589  -3.892   3.163  0.00  0.00    +0.000 C 
ATOM      7  C   UNL     1      -2.610  -2.903   3.794  0.00  0.00    +0.000 C 
ENDBRANCH   1   6
TORSDOF 3
ENDMDL
