MODEL 1
REMARK VINA RESULT:    -2.939      0.000      0.000
REMARK INTER + INTRA:          -3.612
REMARK INTER:                  -3.455
REMARK INTRA:                  -0.157
REMARK UNBOUND:                -0.157
REMARK  Name = C:\DDRIVE\PROJECT\authml\backend\results\ligand_1764474846081.pdb
REMARK  6 active torsions:
REMARK  status: ('A' for Active; 'I' for Inactive)
REMARK    1  A    between atoms: C_1  and  C_2
REMARK    2  A    between atoms: C_2  and  N_3
REMARK    3  A    between atoms: N_3  and  C_4
REMARK    4  A    between atoms: N_3  and  C_6
REMARK    5  A    between atoms: C_4  and  C_5
REMARK    6  A    between atoms: C_6  and  C_7
REMARK                            x       y       z     vdW  Elec       q    Type
REMARK                         _______ _______ _______ _____ _____    ______ ____
ROOT
ATOM      1  N   UNL     1      -4.523  -3.250   2.196  0.00  0.00    +0.000 NA
ENDROOT
BRANCH   1   3
ATOM      2  C   UNL     1      -3.499  -5.094   0.844  0.00  0.00    +0.000 C 
ATOM      3  C   UNL     1      -4.151  -3.713   0.849  0.00  0.00    +0.000 C 
ENDBRANCH   1   3
BRANCH   1   4
ATOM      4  C   UNL     1      -3.673  -3.792   3.269  0.00  0.00    +0.000 C 
ATOM      5  C   UNL     1      -2.574  -2.876   3.803  0.00  0.00    +0.000 C 
ENDBRANCH   1   4
BRANCH   1   6
ATOM      6  C   UNL     1      -4.626  -1.785   2.279  0.00  0.00    +0.000 C 
ATOM      7  C   UNL     1      -5.954  -1.312   2.864  0.00  0.00    +0.000 C 
ENDBRANCH   1   6
TORSDOF 3
ENDMDL
MODEL 2
REMARK VINA RESULT:    -2.934      0.137      3.221
REMARK INTER + INTRA:          -3.606
REMARK INTER:                  -3.452
REMARK INTRA:                  -0.154
REMARK UNBOUND:                -0.157
REMARK  Name = C:\DDRIVE\PROJECT\authml\backend\results\ligand_1764474846081.pdb
REMARK  6 active torsions:
REMARK  status: ('A' for Active; 'I' for Inactive)
REMARK    1  A    between atoms: C_1  and  C_2
REMARK    2  A    between atoms: C_2  and  N_3
REMARK    3  A    between atoms: N_3  and  C_4
REMARK    4  A    between atoms: N_3  and  C_6
REMARK    5  A    between atoms: C_4  and  C_5
REMARK    6  A    between atoms: C_6  and  C_7
REMARK                            x       y       z     vdW  Elec       q    Type
REMARK                         _______ _______ _______ _____ _____    ______ ____
ROOT
ATOM      1  N   UNL     1      -4.487  -3.335   2.184  0.00  0.00    +0.000 NA
ENDROOT
BRANCH   1   3
ATOM      2  C   UNL     1      -2.592  -2.897   3.763  0.00  0.00    +0.000 C 
ATOM      3  C   UNL     1      -3.711  -3.841   3.328  0.00  0.00    +0.000 C 
ENDBRANCH   1   3
BRANCH   1   4
ATOM      4  C   UNL     1      -4.652  -1.871   2.175  0.00  0.00    +0.000 C 
ATOM      5  C   UNL     1      -5.894  -1.315   2.869  0.00  0.00    +0.000 C 
ENDBRANCH   1   4
BRANCH   1   6
ATOM      6  C   UNL     1      -3.977  -3.826   0.895  0.00  0.00    +0.000 C 
ATOM      7  C   UNL     1      -3.486  -5.270   0.959  0.00  0.00    +0.000 C 
ENDBRANCH   1   6
TORSDOF 3
ENDMDL
MODEL 3
REMARK VINA RESULT:    -2.884      0.584      2.416
REMARK INTER + INTRA:          -3.547
REMARK INTER:                  -3.394
REMARK INTRA:                  -0.152
REMARK UNBOUND:                -0.157
REMARK  Name = C:\DDRIVE\PROJECT\authml\backend\results\ligand_1764474846081.pdb
REMARK  6 active torsions:
REMARK  status: ('A' for Active; 'I' for Inactive)
REMARK    1  A    between atoms: C_1  and  C_2
REMARK    2  A    between atoms: C_2  and  N_3
REMARK    3  A    between atoms: N_3  and  C_4
REMARK    4  A    between atoms: N_3  and  C_6
REMARK    5  A    between atoms: C_4  and  C_5
REMARK    6  A    between atoms: C_6  and  C_7
REMARK                            x       y       z     vdW  Elec       q    Type
REMARK                         _______ _______ _______ _____ _____    ______ ____
ROOT
ATOM      1  N   UNL     1      -4.239  -3.066   2.000  0.00  0.00    +0.000 NA
ENDROOT
BRANCH   1   3
ATOM      2  C   UNL     1      -3.655  -5.132   0.710  0.00  0.00    +0.000 C 
ATOM      3  C   UNL     1      -4.211  -3.711   0.677  0.00  0.00    +0.000 C 
ENDBRANCH   1   3
BRANCH   1   4
ATOM      4  C   UNL     1      -5.597  -2.798   2.505  0.00  0.00    +0.000 C 
ATOM      5  C   UNL     1      -5.928  -1.346   2.845  0.00  0.00    +0.000 C 
ENDBRANCH   1   4
BRANCH   1   6
ATOM      6  C   UNL     1      -3.429  -3.787   2.995  0.00  0.00    +0.000 C 
ATOM      7  C   UNL     1      -2.558  -2.860   3.839  0.00  0.00    +0.000 C 
ENDBRANCH   1   6
TORSDOF 3
ENDMDL
MODEL 4
REMARK VINA RESULT:    -2.794      0.532      3.331
REMARK INTER + INTRA:          -3.441
REMARK INTER:                  -3.303
REMARK INTRA:                  -0.139
REMARK UNBOUND:                -0.157
REMARK  Name = C:\DDRIVE\PROJECT\authml\backend\results\ligand_1764474846081.pdb
REMARK  6 active torsions:
REMARK  status: ('A' for Active; 'I' for Inactive)
REMARK    1  A    between atoms: C_1  and  C_2
REMARK    2  A    between atoms: C_2  and  N_3
REMARK    3  A    between atoms: N_3  and  C_4
REMARK    4  A    between atoms: N_3  and  C_6
REMARK    5  A    between atoms: C_4  and  C_5
REMARK    6  A    between atoms: C_6  and  C_7
REMARK                            x       y       z     vdW  Elec       q    Type
REMARK                         _______ _______ _______ _____ _____    ______ ____
ROOT
ATOM      1  N   UNL     1      -4.578  -3.181   1.940  0.00  0.00    +0.000 NA
ENDROOT
BRANCH   1   3
ATOM      2  C   UNL     1      -6.019  -1.333   2.826  0.00  0.00    +0.000 C 
ATOM      3  C   UNL     1      -4.658  -1.749   2.273  0.00  0.00    +0.000 C 
ENDBRANCH   1   3
BRANCH   1   4
ATOM      4  C   UNL     1      -4.593  -3.459   0.493  0.00  0.00    +0.000 C 
ATOM      5  C   UNL     1      -3.828  -4.695   0.024  0.00  0.00    +0.000 C 
ENDBRANCH   1   4
BRANCH   1   6
ATOM      6  C   UNL     1      -3.450  -3.852   2.605  0.00  0.00    +0.000 C 
ATOM      7  C   UNL     1      -2.796  -2.992   3.683  0.00  0.00    +0.000 C 
ENDBRANCH   1   6
TORSDOF 3
ENDMDL
MODEL 5
REMARK VINA RESULT:    -2.761      1.569      2.109
REMARK INTER + INTRA:          -3.403
REMARK INTER:                  -3.276
REMARK INTRA:                  -0.127
REMARK UNBOUND:                -0.157
REMARK  Name = C:\DDRIVE\PROJECT\authml\backend\results\ligand_1764474846081.pdb
REMARK  6 active torsions:
REMARK  status: ('A' for Active; 'I' for Inactive)
REMARK    1  A    between atoms: C_1  and  C_2
REMARK    2  A    between atoms: C_2  and  N_3
REMARK    3  A    between atoms: N_3  and  C_4
REMARK    4  A    between atoms: N_3  and  C_6
REMARK    5  A    between atoms: C_4  and  C_5
REMARK    6  A    between atoms: C_6  and  C_7
REMARK                            x       y       z     vdW  Elec       q    Type
REMARK                         _______ _______ _______ _____ _____    ______ ____
ROOT
ATOM      1  N   UNL     1      -3.763  -4.688   2.035  0.00  0.00    +0.000 NA
ENDROOT
BRANCH   1   3
ATOM      2  C   UNL     1      -2.915  -5.907   0.018  0.00  0.00    +0.000 C 
ATOM      3  C   UNL     1      -3.687  -4.709   0.565  0.00  0.00    +0.000 C 
ENDBRANCH   1   3
BRANCH   1   4
ATOM      4  C   UNL     1      -3.748  -3.333   2.613  0.00  0.00    +0.000 C 
ATOM      5  C   UNL     1      -2.683  -3.050   3.671  0.00  0.00    +0.000 C 
ENDBRANCH   1   4
BRANCH   1   6
ATOM      6  C   UNL     1      -4.889  -5.481   2.553  0.00  0.00    +0.000 C 
ATOM      7  C   UNL     1      -6.038  -4.618   3.068  0.00  0.00    +0.000 C 
ENDBRANCH   1   6
TORSDOF 3
ENDMDL
MODEL 6
REMARK VINA RESULT:    -2.731      1.373      2.917
REMARK INTER + INTRA:          -3.367
REMARK INTER:                  -3.248
REMARK INTRA:                  -0.119
REMARK UNBOUND:                -0.157
REMARK  Name = C:\DDRIVE\PROJECT\authml\backend\results\ligand_1764474846081.pdb
REMARK  6 active torsions:
REMARK  status: ('A' for Active; 'I' for Inactive)
REMARK    1  A    between atoms: C_1  and  C_2
REMARK    2  A    between atoms: C_2  and  N_3
REMARK    3  A    between atoms: N_3  and  C_4
REMARK    4  A    between atoms: N_3  and  C_6
REMARK    5  A    between atoms: C_4  and  C_5
REMARK    6  A    between atoms: C_6  and  C_7
REMARK                            x       y       z     vdW  Elec       q    Type
REMARK                         _______ _______ _______ _____ _____    ______ ____
ROOT
ATOM      1  N   UNL     1      -3.776  -4.269   1.947  0.00  0.00    +0.000 NA
ENDROOT
BRANCH   1   3
ATOM      2  C   UNL     1      -2.659  -2.954   3.763  0.00  0.00    +0.000 C 
ATOM      3  C   UNL     1      -3.968  -3.366   3.094  0.00  0.00    +0.000 C 
ENDBRANCH   1   3
BRANCH   1   4
ATOM      4  C   UNL     1      -4.400  -5.593   2.120  0.00  0.00    +0.000 C 
ATOM      5  C   UNL     1      -3.613  -6.795   1.602  0.00  0.00    +0.000 C 
ENDBRANCH   1   4
BRANCH   1   6
ATOM      6  C   UNL     1      -4.169  -3.652   0.671  0.00  0.00    +0.000 C 
ATOM      7  C   UNL     1      -4.842  -2.293   0.848  0.00  0.00    +0.000 C 
ENDBRANCH   1   6
TORSDOF 3
ENDMDL
MODEL 7
REMARK VINA RESULT:    -2.726      1.593      3.158
REMARK INTER + INTRA:          -3.362
REMARK INTER:                  -3.232
REMARK INTRA:                  -0.129
REMARK UNBOUND:                -0.157
REMARK  Name = C:\DDRIVE\PROJECT\authml\backend\results\ligand_1764474846081.pdb
REMARK  6 active torsions:
REMARK  status: ('A' for Active; 'I' for Inactive)
REMARK    1  A    between atoms: C_1  and  C_2
REMARK    2  A    between atoms: C_2  and  N_3
REMARK    3  A    between atoms: N_3  and  C_4
REMARK    4  A    between atoms: N_3  and  C_6
REMARK    5  A    between atoms: C_4  and  C_5
REMARK    6  A    between atoms: C_6  and  C_7
REMARK                            x       y       z     vdW  Elec       q    Type
REMARK                         _______ _______ _______ _____ _____    ______ ____
ROOT
ATOM      1  N   UNL     1      -3.561  -4.533   1.777  0.00  0.00    +0.000 NA
ENDROOT
BRANCH   1   3
ATOM      2  C   UNL     1      -4.726  -2.708   0.516  0.00  0.00    +0.000 C 
ATOM      3  C   UNL     1      -4.014  -4.058   0.459  0.00  0.00    +0.000 C 
ENDBRANCH   1   3
BRANCH   1   4
ATOM      4  C   UNL     1      -3.884  -3.617   2.885  0.00  0.00    +0.000 C 
ATOM      5  C   UNL     1      -2.705  -3.062   3.681  0.00  0.00    +0.000 C 
ENDBRANCH   1   4
BRANCH   1   6
ATOM      6  C   UNL     1      -4.008  -5.905   2.065  0.00  0.00    +0.000 C 
ATOM      7  C   UNL     1      -3.249  -6.960   1.265  0.00  0.00    +0.000 C 
ENDBRANCH   1   6
TORSDOF 3
ENDMDL
MODEL 8
REMARK VINA RESULT:    -2.604      1.810      3.716
REMARK INTER + INTRA:          -3.218
REMARK INTER:                  -3.058
REMARK INTRA:                  -0.160
REMARK UNBOUND:                -0.157
REMARK  Name = C:\DDRIVE\PROJECT\authml\backend\results\ligand_1764474846081.pdb
REMARK  6 active torsions:
REMARK  status: ('A' for Active; 'I' for Inactive)
REMARK    1  A    between atoms: C_1  and  C_2
REMARK    2  A    between atoms: C_2  and  N_3
REMARK    3  A    between atoms: N_3  and  C_4
REMARK    4  A    between atoms: N_3  and  C_6
REMARK    5  A    between atoms: C_4  and  C_5
REMARK    6  A    between atoms: C_6  and  C_7
REMARK                            x       y       z     vdW  Elec       q    Type
REMARK                         _______ _______ _______ _____ _____    ______ ____
ROOT
ATOM      1  N   UNL     1      -4.287  -4.840   2.866  0.00  0.00    +0.000 NA
ENDROOT
BRANCH   1   3
ATOM      2  C   UNL     1      -2.723  -3.035   3.622  0.00  0.00    +0.000 C 
ATOM      3  C   UNL     1      -3.526  -3.642   2.474  0.00  0.00    +0.000 C 
ENDBRANCH   1   3
BRANCH   1   4
ATOM      4  C   UNL     1      -5.698  -4.570   3.190  0.00  0.00    +0.000 C 
ATOM      5  C   UNL     1      -6.746  -5.359   2.408  0.00  0.00    +0.000 C 
ENDBRANCH   1   4
BRANCH   1   6
ATOM      6  C   UNL     1      -4.160  -5.933   1.889  0.00  0.00    +0.000 C 
ATOM      7  C   UNL     1      -3.238  -5.588   0.723  0.00  0.00    +0.000 C 
ENDBRANCH   1   6
TORSDOF 3
ENDMDL
MODEL 9
REMARK VINA RESULT:    -2.549     13.663     14.764
REMARK INTER + INTRA:          -3.153
REMARK INTER:                  -3.003
REMARK INTRA:                  -0.150
REMARK UNBOUND:                -0.157
REMARK  Name = C:\DDRIVE\PROJECT\authml\backend\results\ligand_1764474846081.pdb
REMARK  6 active torsions:
REMARK  status: ('A' for Active; 'I' for Inactive)
REMARK    1  A    between atoms: C_1  and  C_2
REMARK    2  A    between atoms: C_2  and  N_3
REMARK    3  A    between atoms: N_3  and  C_4
REMARK    4  A    between atoms: N_3  and  C_6
REMARK    5  A    between atoms: C_4  and  C_5
REMARK    6  A    between atoms: C_6  and  C_7
REMARK                            x       y       z     vdW  Elec       q    Type
REMARK                         _______ _______ _______ _____ _____    ______ ____
ROOT
ATOM      1  N   UNL     1       9.769  -5.024  -1.918  0.00  0.00    +0.000 NA
ENDROOT
BRANCH   1   3
ATOM      2  C   UNL     1       8.304  -5.970  -0.121  0.00  0.00    +0.000 C 
ATOM      3  C   UNL     1       8.404  -5.100  -1.371  0.00  0.00    +0.000 C 
ENDBRANCH   1   3
BRANCH   1   4
ATOM      4  C   UNL     1       9.939  -5.735  -3.197  0.00  0.00    +0.000 C 
ATOM      5  C   UNL     1       8.695  -6.400  -3.783  0.00  0.00    +0.000 C 
ENDBRANCH   1   4
BRANCH   1   6
ATOM      6  C   UNL     1      10.267  -3.642  -2.001  0.00  0.00    +0.000 C 
ATOM      7  C   UNL     1      10.831  -3.293  -3.376  0.00  0.00    +0.000 C 
ENDBRANCH   1   6
TORSDOF 3
ENDMDL
