MODEL 1
REMARK VINA RESULT:    -3.124      0.000      0.000
REMARK INTER + INTRA:          -3.823
REMARK INTER:                  -3.671
REMARK INTRA:                  -0.151
REMARK UNBOUND:                -0.151
REMARK  Name = results/3d07dec8-a6d4-4264-949b-48c30487732d_ligand.pdb
REMARK  6 active torsions:
REMARK  status: ('A' for Active; 'I' for Inactive)
REMARK    1  A    between atoms: C1_1  and  C2_2
REMARK    2  A    between atoms: C2_2  and  N1_3
REMARK    3  A    between atoms: N1_3  and  C3_4
REMARK    4  A    between atoms: N1_3  and  C5_6
REMARK    5  A    between atoms: C3_4  and  C4_5
REMARK    6  A    between atoms: C5_6  and  C6_7
REMARK                            x       y       z     vdW  Elec       q    Type
REMARK                         _______ _______ _______ _____ _____    ______ ____
ROOT
ATOM      1  N1  UNL     1       4.844   2.117   4.366  0.00  0.00    +0.000 NA
ENDROOT
BRANCH   1   3
ATOM      2  C1  UNL     1       6.460   0.304   4.750  0.00  0.00    +0.000 C 
ATOM      3  C2  UNL     1       5.896   1.613   5.288  0.00  0.00    +0.000 C 
ENDBRANCH   1   3
BRANCH   1   4
ATOM      4  C3  UNL     1       5.159   3.473   3.861  0.00  0.00    +0.000 C 
ATOM      5  C4  UNL     1       6.535   3.933   4.342  0.00  0.00    +0.000 C 
ENDBRANCH   1   4
BRANCH   1   6
ATOM      6  C5  UNL     1       3.505   2.099   4.998  0.00  0.00    +0.000 C 
ATOM      7  C6  UNL     1       3.423   3.111   6.140  0.00  0.00    +0.000 C 
ENDBRANCH   1   6
TORSDOF 3
ENDMDL
MODEL 2
REMARK VINA RESULT:    -3.120      1.515      2.965
REMARK INTER + INTRA:          -3.819
REMARK INTER:                  -3.668
REMARK INTRA:                  -0.151
REMARK UNBOUND:                -0.151
REMARK  Name = results/3d07dec8-a6d4-4264-949b-48c30487732d_ligand.pdb
REMARK  6 active torsions:
REMARK  status: ('A' for Active; 'I' for Inactive)
REMARK    1  A    between atoms: C1_1  and  C2_2
REMARK    2  A    between atoms: C2_2  and  N1_3
REMARK    3  A    between atoms: N1_3  and  C3_4
REMARK    4  A    between atoms: N1_3  and  C5_6
REMARK    5  A    between atoms: C3_4  and  C4_5
REMARK    6  A    between atoms: C5_6  and  C6_7
REMARK                            x       y       z     vdW  Elec       q    Type
REMARK                         _______ _______ _______ _____ _____    ______ ____
ROOT
ATOM      1  N1  UNL     1       5.644   2.870   5.219  0.00  0.00    +0.000 NA
ENDROOT
BRANCH   1   3
ATOM      2  C1  UNL     1       3.260   2.301   5.023  0.00  0.00    +0.000 C 
ATOM      3  C2  UNL     1       4.654   2.071   4.451  0.00  0.00    +0.000 C 
ENDBRANCH   1   3
BRANCH   1   4
ATOM      4  C3  UNL     1       5.393   4.324   5.096  0.00  0.00    +0.000 C 
ATOM      5  C4  UNL     1       5.449   5.009   6.462  0.00  0.00    +0.000 C 
ENDBRANCH   1   4
BRANCH   1   6
ATOM      6  C5  UNL     1       7.035   2.550   4.821  0.00  0.00    +0.000 C 
ATOM      7  C6  UNL     1       7.186   1.061   4.508  0.00  0.00    +0.000 C 
ENDBRANCH   1   6
TORSDOF 3
ENDMDL
MODEL 3
REMARK VINA RESULT:    -3.089      1.594      2.360
REMARK INTER + INTRA:          -3.782
REMARK INTER:                  -3.634
REMARK INTRA:                  -0.148
REMARK UNBOUND:                -0.151
REMARK  Name = results/3d07dec8-a6d4-4264-949b-48c30487732d_ligand.pdb
REMARK  6 active torsions:
REMARK  status: ('A' for Active; 'I' for Inactive)
REMARK    1  A    between atoms: C1_1  and  C2_2
REMARK    2  A    between atoms: C2_2  and  N1_3
REMARK    3  A    between atoms: N1_3  and  C3_4
REMARK    4  A    between atoms: N1_3  and  C5_6
REMARK    5  A    between atoms: C3_4  and  C4_5
REMARK    6  A    between atoms: C5_6  and  C6_7
REMARK                            x       y       z     vdW  Elec       q    Type
REMARK                         _______ _______ _______ _____ _____    ______ ____
ROOT
ATOM      1  N1  UNL     1       5.758   2.878   5.410  0.00  0.00    +0.000 NA
ENDROOT
BRANCH   1   3
ATOM      2  C1  UNL     1       7.288   1.116   4.635  0.00  0.00    +0.000 C 
ATOM      3  C2  UNL     1       7.171   2.575   5.061  0.00  0.00    +0.000 C 
ENDBRANCH   1   3
BRANCH   1   4
ATOM      4  C3  UNL     1       4.809   2.036   4.646  0.00  0.00    +0.000 C 
ATOM      5  C4  UNL     1       3.362   2.380   4.998  0.00  0.00    +0.000 C 
ENDBRANCH   1   4
BRANCH   1   6
ATOM      6  C5  UNL     1       5.442   4.313   5.222  0.00  0.00    +0.000 C 
ATOM      7  C6  UNL     1       5.458   5.057   6.557  0.00  0.00    +0.000 C 
ENDBRANCH   1   6
TORSDOF 3
ENDMDL
MODEL 4
REMARK VINA RESULT:    -3.082      1.370      2.794
REMARK INTER + INTRA:          -3.773
REMARK INTER:                  -3.617
REMARK INTRA:                  -0.157
REMARK UNBOUND:                -0.151
REMARK  Name = results/3d07dec8-a6d4-4264-949b-48c30487732d_ligand.pdb
REMARK  6 active torsions:
REMARK  status: ('A' for Active; 'I' for Inactive)
REMARK    1  A    between atoms: C1_1  and  C2_2
REMARK    2  A    between atoms: C2_2  and  N1_3
REMARK    3  A    between atoms: N1_3  and  C3_4
REMARK    4  A    between atoms: N1_3  and  C5_6
REMARK    5  A    between atoms: C3_4  and  C4_5
REMARK    6  A    between atoms: C5_6  and  C6_7
REMARK                            x       y       z     vdW  Elec       q    Type
REMARK                         _______ _______ _______ _____ _____    ______ ____
ROOT
ATOM      1  N1  UNL     1       5.665   2.764   5.284  0.00  0.00    +0.000 NA
ENDROOT
BRANCH   1   3
ATOM      2  C1  UNL     1       5.478   4.941   6.412  0.00  0.00    +0.000 C 
ATOM      3  C2  UNL     1       5.774   4.235   5.095  0.00  0.00    +0.000 C 
ENDBRANCH   1   3
BRANCH   1   4
ATOM      4  C3  UNL     1       6.965   2.085   5.082  0.00  0.00    +0.000 C 
ATOM      5  C4  UNL     1       6.778   0.734   4.392  0.00  0.00    +0.000 C 
ENDBRANCH   1   4
BRANCH   1   6
ATOM      6  C5  UNL     1       4.630   2.173   4.404  0.00  0.00    +0.000 C 
ATOM      7  C6  UNL     1       3.248   2.256   5.051  0.00  0.00    +0.000 C 
ENDBRANCH   1   6
TORSDOF 3
ENDMDL
MODEL 5
REMARK VINA RESULT:    -3.068      1.706      3.195
REMARK INTER + INTRA:          -3.757
REMARK INTER:                  -3.561
REMARK INTRA:                  -0.197
REMARK UNBOUND:                -0.151
REMARK  Name = results/3d07dec8-a6d4-4264-949b-48c30487732d_ligand.pdb
REMARK  6 active torsions:
REMARK  status: ('A' for Active; 'I' for Inactive)
REMARK    1  A    between atoms: C1_1  and  C2_2
REMARK    2  A    between atoms: C2_2  and  N1_3
REMARK    3  A    between atoms: N1_3  and  C3_4
REMARK    4  A    between atoms: N1_3  and  C5_6
REMARK    5  A    between atoms: C3_4  and  C4_5
REMARK    6  A    between atoms: C5_6  and  C6_7
REMARK                            x       y       z     vdW  Elec       q    Type
REMARK                         _______ _______ _______ _____ _____    ______ ____
ROOT
ATOM      1  N1  UNL     1       6.936   2.504   4.771  0.00  0.00    +0.000 NA
ENDROOT
BRANCH   1   3
ATOM      2  C1  UNL     1       4.952   3.439   3.662  0.00  0.00    +0.000 C 
ATOM      3  C2  UNL     1       6.176   3.755   4.512  0.00  0.00    +0.000 C 
ENDBRANCH   1   3
BRANCH   1   4
ATOM      4  C3  UNL     1       6.135   1.298   4.459  0.00  0.00    +0.000 C 
ATOM      5  C4  UNL     1       6.922   0.022   4.761  0.00  0.00    +0.000 C 
ENDBRANCH   1   4
BRANCH   1   6
ATOM      6  C5  UNL     1       7.438   2.445   6.164  0.00  0.00    +0.000 C 
ATOM      7  C6  UNL     1       6.335   2.801   7.160  0.00  0.00    +0.000 C 
ENDBRANCH   1   6
TORSDOF 3
ENDMDL
MODEL 6
REMARK VINA RESULT:    -3.063      1.758      2.834
REMARK INTER + INTRA:          -3.751
REMARK INTER:                  -3.550
REMARK INTRA:                  -0.201
REMARK UNBOUND:                -0.151
REMARK  Name = results/3d07dec8-a6d4-4264-949b-48c30487732d_ligand.pdb
REMARK  6 active torsions:
REMARK  status: ('A' for Active; 'I' for Inactive)
REMARK    1  A    between atoms: C1_1  and  C2_2
REMARK    2  A    between atoms: C2_2  and  N1_3
REMARK    3  A    between atoms: N1_3  and  C3_4
REMARK    4  A    between atoms: N1_3  and  C5_6
REMARK    5  A    between atoms: C3_4  and  C4_5
REMARK    6  A    between atoms: C5_6  and  C6_7
REMARK                            x       y       z     vdW  Elec       q    Type
REMARK                         _______ _______ _______ _____ _____    ______ ____
ROOT
ATOM      1  N1  UNL     1       6.863   2.557   4.719  0.00  0.00    +0.000 NA
ENDROOT
BRANCH   1   3
ATOM      2  C1  UNL     1       6.345   3.149   7.048  0.00  0.00    +0.000 C 
ATOM      3  C2  UNL     1       7.367   2.509   6.116  0.00  0.00    +0.000 C 
ENDBRANCH   1   3
BRANCH   1   4
ATOM      4  C3  UNL     1       6.065   3.778   4.463  0.00  0.00    +0.000 C 
ATOM      5  C4  UNL     1       4.931   3.496   3.476  0.00  0.00    +0.000 C 
ENDBRANCH   1   4
BRANCH   1   6
ATOM      6  C5  UNL     1       6.081   1.346   4.375  0.00  0.00    +0.000 C 
ATOM      7  C6  UNL     1       6.810   0.078   4.819  0.00  0.00    +0.000 C 
ENDBRANCH   1   6
TORSDOF 3
ENDMDL
MODEL 7
REMARK VINA RESULT:    -3.022      1.712      2.543
REMARK INTER + INTRA:          -3.703
REMARK INTER:                  -3.502
REMARK INTRA:                  -0.202
REMARK UNBOUND:                -0.151
REMARK  Name = results/3d07dec8-a6d4-4264-949b-48c30487732d_ligand.pdb
REMARK  6 active torsions:
REMARK  status: ('A' for Active; 'I' for Inactive)
REMARK    1  A    between atoms: C1_1  and  C2_2
REMARK    2  A    between atoms: C2_2  and  N1_3
REMARK    3  A    between atoms: N1_3  and  C3_4
REMARK    4  A    between atoms: N1_3  and  C5_6
REMARK    5  A    between atoms: C3_4  and  C4_5
REMARK    6  A    between atoms: C5_6  and  C6_7
REMARK                            x       y       z     vdW  Elec       q    Type
REMARK                         _______ _______ _______ _____ _____    ______ ____
ROOT
ATOM      1  N1  UNL     1       6.855   2.545   4.881  0.00  0.00    +0.000 NA
ENDROOT
BRANCH   1   3
ATOM      2  C1  UNL     1       6.929   0.093   4.710  0.00  0.00    +0.000 C 
ATOM      3  C2  UNL     1       6.075   1.337   4.500  0.00  0.00    +0.000 C 
ENDBRANCH   1   3
BRANCH   1   4
ATOM      4  C3  UNL     1       7.293   2.494   6.294  0.00  0.00    +0.000 C 
ATOM      5  C4  UNL     1       6.133   2.808   7.240  0.00  0.00    +0.000 C 
ENDBRANCH   1   4
BRANCH   1   6
ATOM      6  C5  UNL     1       6.100   3.792   4.617  0.00  0.00    +0.000 C 
ATOM      7  C6  UNL     1       4.951   3.541   3.641  0.00  0.00    +0.000 C 
ENDBRANCH   1   6
TORSDOF 3
ENDMDL
MODEL 8
REMARK VINA RESULT:    -2.992      1.398      2.107
REMARK INTER + INTRA:          -3.668
REMARK INTER:                  -3.471
REMARK INTRA:                  -0.197
REMARK UNBOUND:                -0.151
REMARK  Name = results/3d07dec8-a6d4-4264-949b-48c30487732d_ligand.pdb
REMARK  6 active torsions:
REMARK  status: ('A' for Active; 'I' for Inactive)
REMARK    1  A    between atoms: C1_1  and  C2_2
REMARK    2  A    between atoms: C2_2  and  N1_3
REMARK    3  A    between atoms: N1_3  and  C3_4
REMARK    4  A    between atoms: N1_3  and  C5_6
REMARK    5  A    between atoms: C3_4  and  C4_5
REMARK    6  A    between atoms: C5_6  and  C6_7
REMARK                            x       y       z     vdW  Elec       q    Type
REMARK                         _______ _______ _______ _____ _____    ______ ____
ROOT
ATOM      1  N1  UNL     1       5.584   1.822   5.270  0.00  0.00    +0.000 NA
ENDROOT
BRANCH   1   3
ATOM      2  C1  UNL     1       7.695   0.832   4.490  0.00  0.00    +0.000 C 
ATOM      3  C2  UNL     1       6.190   0.910   4.264  0.00  0.00    +0.000 C 
ENDBRANCH   1   3
BRANCH   1   4
ATOM      4  C3  UNL     1       4.487   2.629   4.689  0.00  0.00    +0.000 C 
ATOM      5  C4  UNL     1       4.992   3.490   3.531  0.00  0.00    +0.000 C 
ENDBRANCH   1   4
BRANCH   1   6
ATOM      6  C5  UNL     1       6.598   2.701   5.896  0.00  0.00    +0.000 C 
ATOM      7  C6  UNL     1       6.361   2.826   7.401  0.00  0.00    +0.000 C 
ENDBRANCH   1   6
TORSDOF 3
ENDMDL
MODEL 9
REMARK VINA RESULT:    -2.929      1.547      2.608
REMARK INTER + INTRA:          -3.593
REMARK INTER:                  -3.427
REMARK INTRA:                  -0.166
REMARK UNBOUND:                -0.151
REMARK  Name = results/3d07dec8-a6d4-4264-949b-48c30487732d_ligand.pdb
REMARK  6 active torsions:
REMARK  status: ('A' for Active; 'I' for Inactive)
REMARK    1  A    between atoms: C1_1  and  C2_2
REMARK    2  A    between atoms: C2_2  and  N1_3
REMARK    3  A    between atoms: N1_3  and  C3_4
REMARK    4  A    between atoms: N1_3  and  C5_6
REMARK    5  A    between atoms: C3_4  and  C4_5
REMARK    6  A    between atoms: C5_6  and  C6_7
REMARK                            x       y       z     vdW  Elec       q    Type
REMARK                         _______ _______ _______ _____ _____    ______ ____
ROOT
ATOM      1  N1  UNL     1       5.642   2.037   5.579  0.00  0.00    +0.000 NA
ENDROOT
BRANCH   1   3
ATOM      2  C1  UNL     1       6.453   2.114   7.899  0.00  0.00    +0.000 C 
ATOM      3  C2  UNL     1       5.815   2.912   6.769  0.00  0.00    +0.000 C 
ENDBRANCH   1   3
BRANCH   1   4
ATOM      4  C3  UNL     1       6.883   1.947   4.776  0.00  0.00    +0.000 C 
ATOM      5  C4  UNL     1       7.249   0.490   4.491  0.00  0.00    +0.000 C 
ENDBRANCH   1   4
BRANCH   1   6
ATOM      6  C5  UNL     1       4.509   2.479   4.733  0.00  0.00    +0.000 C 
ATOM      7  C6  UNL     1       4.977   3.459   3.658  0.00  0.00    +0.000 C 
ENDBRANCH   1   6
TORSDOF 3
ENDMDL
