MODEL 1
REMARK VINA RESULT:    -2.937      0.000      0.000
REMARK INTER + INTRA:          -3.607
REMARK INTER:                  -3.453
REMARK INTRA:                  -0.155
REMARK UNBOUND:                -0.155
REMARK  Name = C:\DDRIVE\PROJECT\authml\backend\results\ligand_1764478299743.pdb
REMARK  6 active torsions:
REMARK  status: ('A' for Active; 'I' for Inactive)
REMARK    1  A    between atoms: C_1  and  C_2
REMARK    2  A    between atoms: C_2  and  N_3
REMARK    3  A    between atoms: N_3  and  C_4
REMARK    4  A    between atoms: N_3  and  C_6
REMARK    5  A    between atoms: C_4  and  C_5
REMARK    6  A    between atoms: C_6  and  C_7
REMARK                            x       y       z     vdW  Elec       q    Type
REMARK                         _______ _______ _______ _____ _____    ______ ____
ROOT
ATOM      1  N   UNL     1      -4.510  -3.278   2.180  0.00  0.00    +0.000 NA
ENDROOT
BRANCH   1   3
ATOM      2  C   UNL     1      -2.629  -2.890   3.786  0.00  0.00    +0.000 C 
ATOM      3  C   UNL     1      -3.700  -3.849   3.268  0.00  0.00    +0.000 C 
ENDBRANCH   1   3
BRANCH   1   4
ATOM      4  C   UNL     1      -4.637  -1.810   2.237  0.00  0.00    +0.000 C 
ATOM      5  C   UNL     1      -5.910  -1.255   2.870  0.00  0.00    +0.000 C 
ENDBRANCH   1   4
BRANCH   1   6
ATOM      6  C   UNL     1      -4.077  -3.729   0.852  0.00  0.00    +0.000 C 
ATOM      7  C   UNL     1      -3.481  -5.137   0.863  0.00  0.00    +0.000 C 
ENDBRANCH   1   6
TORSDOF 3
ENDMDL
MODEL 2
REMARK VINA RESULT:    -2.927      0.151      3.160
REMARK INTER + INTRA:          -3.595
REMARK INTER:                  -3.442
REMARK INTRA:                  -0.153
REMARK UNBOUND:                -0.155
REMARK  Name = C:\DDRIVE\PROJECT\authml\backend\results\ligand_1764478299743.pdb
REMARK  6 active torsions:
REMARK  status: ('A' for Active; 'I' for Inactive)
REMARK    1  A    between atoms: C_1  and  C_2
REMARK    2  A    between atoms: C_2  and  N_3
REMARK    3  A    between atoms: N_3  and  C_4
REMARK    4  A    between atoms: N_3  and  C_6
REMARK    5  A    between atoms: C_4  and  C_5
REMARK    6  A    between atoms: C_6  and  C_7
REMARK                            x       y       z     vdW  Elec       q    Type
REMARK                         _______ _______ _______ _____ _____    ______ ____
ROOT
ATOM      1  N   UNL     1      -4.461  -3.346   2.137  0.00  0.00    +0.000 NA
ENDROOT
BRANCH   1   3
ATOM      2  C   UNL     1      -3.471  -5.333   0.981  0.00  0.00    +0.000 C 
ATOM      3  C   UNL     1      -3.943  -3.885   0.869  0.00  0.00    +0.000 C 
ENDBRANCH   1   3
BRANCH   1   4
ATOM      4  C   UNL     1      -3.714  -3.795   3.326  0.00  0.00    +0.000 C 
ATOM      5  C   UNL     1      -2.569  -2.901   3.795  0.00  0.00    +0.000 C 
ENDBRANCH   1   4
BRANCH   1   6
ATOM      6  C   UNL     1      -4.611  -1.887   2.115  0.00  0.00    +0.000 C 
ATOM      7  C   UNL     1      -5.866  -1.404   2.843  0.00  0.00    +0.000 C 
ENDBRANCH   1   6
TORSDOF 3
ENDMDL
MODEL 3
REMARK VINA RESULT:    -2.917      0.122      3.225
REMARK INTER + INTRA:          -3.583
REMARK INTER:                  -3.434
REMARK INTRA:                  -0.148
REMARK UNBOUND:                -0.155
REMARK  Name = C:\DDRIVE\PROJECT\authml\backend\results\ligand_1764478299743.pdb
REMARK  6 active torsions:
REMARK  status: ('A' for Active; 'I' for Inactive)
REMARK    1  A    between atoms: C_1  and  C_2
REMARK    2  A    between atoms: C_2  and  N_3
REMARK    3  A    between atoms: N_3  and  C_4
REMARK    4  A    between atoms: N_3  and  C_6
REMARK    5  A    between atoms: C_4  and  C_5
REMARK    6  A    between atoms: C_6  and  C_7
REMARK                            x       y       z     vdW  Elec       q    Type
REMARK                         _______ _______ _______ _____ _____    ______ ____
ROOT
ATOM      1  N   UNL     1      -4.537  -3.302   2.161  0.00  0.00    +0.000 NA
ENDROOT
BRANCH   1   3
ATOM      2  C   UNL     1      -5.933  -1.337   2.836  0.00  0.00    +0.000 C 
ATOM      3  C   UNL     1      -4.660  -1.836   2.154  0.00  0.00    +0.000 C 
ENDBRANCH   1   3
BRANCH   1   4
ATOM      4  C   UNL     1      -3.998  -3.863   0.909  0.00  0.00    +0.000 C 
ATOM      5  C   UNL     1      -3.458  -5.289   0.971  0.00  0.00    +0.000 C 
ENDBRANCH   1   4
BRANCH   1   6
ATOM      6  C   UNL     1      -3.810  -3.806   3.332  0.00  0.00    +0.000 C 
ATOM      7  C   UNL     1      -2.629  -2.921   3.730  0.00  0.00    +0.000 C 
ENDBRANCH   1   6
TORSDOF 3
ENDMDL
MODEL 4
REMARK VINA RESULT:    -2.897      0.559      2.492
REMARK INTER + INTRA:          -3.559
REMARK INTER:                  -3.405
REMARK INTRA:                  -0.154
REMARK UNBOUND:                -0.155
REMARK  Name = C:\DDRIVE\PROJECT\authml\backend\results\ligand_1764478299743.pdb
REMARK  6 active torsions:
REMARK  status: ('A' for Active; 'I' for Inactive)
REMARK    1  A    between atoms: C_1  and  C_2
REMARK    2  A    between atoms: C_2  and  N_3
REMARK    3  A    between atoms: N_3  and  C_4
REMARK    4  A    between atoms: N_3  and  C_6
REMARK    5  A    between atoms: C_4  and  C_5
REMARK    6  A    between atoms: C_6  and  C_7
REMARK                            x       y       z     vdW  Elec       q    Type
REMARK                         _______ _______ _______ _____ _____    ______ ____
ROOT
ATOM      1  N   UNL     1      -4.223  -3.129   1.996  0.00  0.00    +0.000 NA
ENDROOT
BRANCH   1   3
ATOM      2  C   UNL     1      -3.466  -5.268   0.939  0.00  0.00    +0.000 C 
ATOM      3  C   UNL     1      -4.087  -3.887   0.741  0.00  0.00    +0.000 C 
ENDBRANCH   1   3
BRANCH   1   4
ATOM      4  C   UNL     1      -5.615  -2.781   2.337  0.00  0.00    +0.000 C 
ATOM      5  C   UNL     1      -5.866  -1.359   2.829  0.00  0.00    +0.000 C 
ENDBRANCH   1   4
BRANCH   1   6
ATOM      6  C   UNL     1      -3.538  -3.771   3.124  0.00  0.00    +0.000 C 
ATOM      7  C   UNL     1      -2.553  -2.841   3.833  0.00  0.00    +0.000 C 
ENDBRANCH   1   6
TORSDOF 3
ENDMDL
MODEL 5
REMARK VINA RESULT:    -2.784      1.320      2.662
REMARK INTER + INTRA:          -3.426
REMARK INTER:                  -3.301
REMARK INTRA:                  -0.126
REMARK UNBOUND:                -0.155
REMARK  Name = C:\DDRIVE\PROJECT\authml\backend\results\ligand_1764478299743.pdb
REMARK  6 active torsions:
REMARK  status: ('A' for Active; 'I' for Inactive)
REMARK    1  A    between atoms: C_1  and  C_2
REMARK    2  A    between atoms: C_2  and  N_3
REMARK    3  A    between atoms: N_3  and  C_4
REMARK    4  A    between atoms: N_3  and  C_6
REMARK    5  A    between atoms: C_4  and  C_5
REMARK    6  A    between atoms: C_6  and  C_7
REMARK                            x       y       z     vdW  Elec       q    Type
REMARK                         _______ _______ _______ _____ _____    ______ ____
ROOT
ATOM      1  N   UNL     1      -3.607  -4.166   1.544  0.00  0.00    +0.000 NA
ENDROOT
BRANCH   1   3
ATOM      2  C   UNL     1      -4.799  -2.120   0.735  0.00  0.00    +0.000 C 
ATOM      3  C   UNL     1      -4.450  -3.586   0.486  0.00  0.00    +0.000 C 
ENDBRANCH   1   3
BRANCH   1   4
ATOM      4  C   UNL     1      -3.894  -3.642   2.892  0.00  0.00    +0.000 C 
ATOM      5  C   UNL     1      -2.715  -3.065   3.671  0.00  0.00    +0.000 C 
ENDBRANCH   1   4
BRANCH   1   6
ATOM      6  C   UNL     1      -3.603  -5.633   1.528  0.00  0.00    +0.000 C 
ATOM      7  C   UNL     1      -2.844  -6.217   0.336  0.00  0.00    +0.000 C 
ENDBRANCH   1   6
TORSDOF 3
ENDMDL
MODEL 6
REMARK VINA RESULT:    -2.711      1.303      2.696
REMARK INTER + INTRA:          -3.341
REMARK INTER:                  -3.142
REMARK INTRA:                  -0.199
REMARK UNBOUND:                -0.155
REMARK  Name = C:\DDRIVE\PROJECT\authml\backend\results\ligand_1764478299743.pdb
REMARK  6 active torsions:
REMARK  status: ('A' for Active; 'I' for Inactive)
REMARK    1  A    between atoms: C_1  and  C_2
REMARK    2  A    between atoms: C_2  and  N_3
REMARK    3  A    between atoms: N_3  and  C_4
REMARK    4  A    between atoms: N_3  and  C_6
REMARK    5  A    between atoms: C_4  and  C_5
REMARK    6  A    between atoms: C_6  and  C_7
REMARK                            x       y       z     vdW  Elec       q    Type
REMARK                         _______ _______ _______ _____ _____    ______ ____
ROOT
ATOM      1  N   UNL     1      -4.503  -3.265   2.119  0.00  0.00    +0.000 NA
ENDROOT
BRANCH   1   3
ATOM      2  C   UNL     1      -2.638  -2.928   3.754  0.00  0.00    +0.000 C 
ATOM      3  C   UNL     1      -3.684  -3.880   3.176  0.00  0.00    +0.000 C 
ENDBRANCH   1   3
BRANCH   1   4
ATOM      4  C   UNL     1      -4.172  -3.732   0.760  0.00  0.00    +0.000 C 
ATOM      5  C   UNL     1      -3.480  -5.088   0.649  0.00  0.00    +0.000 C 
ENDBRANCH   1   4
BRANCH   1   6
ATOM      6  C   UNL     1      -5.943  -3.363   2.385  0.00  0.00    +0.000 C 
ATOM      7  C   UNL     1      -6.336  -4.668   3.077  0.00  0.00    +0.000 C 
ENDBRANCH   1   6
TORSDOF 3
ENDMDL
MODEL 7
REMARK VINA RESULT:    -2.694      1.427      3.151
REMARK INTER + INTRA:          -3.321
REMARK INTER:                  -3.174
REMARK INTRA:                  -0.147
REMARK UNBOUND:                -0.155
REMARK  Name = C:\DDRIVE\PROJECT\authml\backend\results\ligand_1764478299743.pdb
REMARK  6 active torsions:
REMARK  status: ('A' for Active; 'I' for Inactive)
REMARK    1  A    between atoms: C_1  and  C_2
REMARK    2  A    between atoms: C_2  and  N_3
REMARK    3  A    between atoms: N_3  and  C_4
REMARK    4  A    between atoms: N_3  and  C_6
REMARK    5  A    between atoms: C_4  and  C_5
REMARK    6  A    between atoms: C_6  and  C_7
REMARK                            x       y       z     vdW  Elec       q    Type
REMARK                         _______ _______ _______ _____ _____    ______ ____
ROOT
ATOM      1  N   UNL     1      -3.778  -4.220   1.633  0.00  0.00    +0.000 NA
ENDROOT
BRANCH   1   3
ATOM      2  C   UNL     1      -2.740  -3.058   3.592  0.00  0.00    +0.000 C 
ATOM      3  C   UNL     1      -3.950  -3.806   3.035  0.00  0.00    +0.000 C 
ENDBRANCH   1   3
BRANCH   1   4
ATOM      4  C   UNL     1      -3.565  -5.668   1.460  0.00  0.00    +0.000 C 
ATOM      5  C   UNL     1      -2.875  -6.112   0.172  0.00  0.00    +0.000 C 
ENDBRANCH   1   4
BRANCH   1   6
ATOM      6  C   UNL     1      -4.848  -3.725   0.759  0.00  0.00    +0.000 C 
ATOM      7  C   UNL     1      -4.760  -2.221   0.498  0.00  0.00    +0.000 C 
ENDBRANCH   1   6
TORSDOF 3
ENDMDL
MODEL 8
REMARK VINA RESULT:    -2.578     13.641     14.797
REMARK INTER + INTRA:          -3.185
REMARK INTER:                  -3.047
REMARK INTRA:                  -0.138
REMARK UNBOUND:                -0.155
REMARK  Name = C:\DDRIVE\PROJECT\authml\backend\results\ligand_1764478299743.pdb
REMARK  6 active torsions:
REMARK  status: ('A' for Active; 'I' for Inactive)
REMARK    1  A    between atoms: C_1  and  C_2
REMARK    2  A    between atoms: C_2  and  N_3
REMARK    3  A    between atoms: N_3  and  C_4
REMARK    4  A    between atoms: N_3  and  C_6
REMARK    5  A    between atoms: C_4  and  C_5
REMARK    6  A    between atoms: C_6  and  C_7
REMARK                            x       y       z     vdW  Elec       q    Type
REMARK                         _______ _______ _______ _____ _____    ______ ____
ROOT
ATOM      1  N   UNL     1       9.302  -5.021  -2.519  0.00  0.00    +0.000 NA
ENDROOT
BRANCH   1   3
ATOM      2  C   UNL     1      10.753  -3.123  -3.266  0.00  0.00    +0.000 C 
ATOM      3  C   UNL     1      10.599  -4.634  -3.098  0.00  0.00    +0.000 C 
ENDBRANCH   1   3
BRANCH   1   4
ATOM      4  C   UNL     1       8.879  -6.391  -2.864  0.00  0.00    +0.000 C 
ATOM      5  C   UNL     1       8.491  -6.644  -4.318  0.00  0.00    +0.000 C 
ENDBRANCH   1   4
BRANCH   1   6
ATOM      6  C   UNL     1       9.232  -4.785  -1.073  0.00  0.00    +0.000 C 
ATOM      7  C   UNL     1       8.382  -5.822  -0.338  0.00  0.00    +0.000 C 
ENDBRANCH   1   6
TORSDOF 3
ENDMDL
MODEL 9
REMARK VINA RESULT:    -2.484      1.433      2.848
REMARK INTER + INTRA:          -3.074
REMARK INTER:                  -2.941
REMARK INTRA:                  -0.133
REMARK UNBOUND:                -0.155
REMARK  Name = C:\DDRIVE\PROJECT\authml\backend\results\ligand_1764478299743.pdb
REMARK  6 active torsions:
REMARK  status: ('A' for Active; 'I' for Inactive)
REMARK    1  A    between atoms: C_1  and  C_2
REMARK    2  A    between atoms: C_2  and  N_3
REMARK    3  A    between atoms: N_3  and  C_4
REMARK    4  A    between atoms: N_3  and  C_6
REMARK    5  A    between atoms: C_4  and  C_5
REMARK    6  A    between atoms: C_6  and  C_7
REMARK                            x       y       z     vdW  Elec       q    Type
REMARK                         _______ _______ _______ _____ _____    ______ ____
ROOT
ATOM      1  N   UNL     1      -4.680  -2.419   1.834  0.00  0.00    +0.000 NA
ENDROOT
BRANCH   1   3
ATOM      2  C   UNL     1      -2.898  -3.159   3.429  0.00  0.00    +0.000 C 
ATOM      3  C   UNL     1      -3.734  -3.488   2.194  0.00  0.00    +0.000 C 
ENDBRANCH   1   3
BRANCH   1   4
ATOM      4  C   UNL     1      -5.058  -2.410   0.409  0.00  0.00    +0.000 C 
ATOM      5  C   UNL     1      -4.699  -1.159  -0.389  0.00  0.00    +0.000 C 
ENDBRANCH   1   4
BRANCH   1   6
ATOM      6  C   UNL     1      -5.861  -2.389   2.704  0.00  0.00    +0.000 C 
ATOM      7  C   UNL     1      -6.488  -0.999   2.814  0.00  0.00    +0.000 C 
ENDBRANCH   1   6
TORSDOF 3
ENDMDL
