MODEL 1
REMARK VINA RESULT:    -7.486      0.000      0.000
REMARK INTER + INTRA:          -8.768
REMARK INTER:                  -9.017
REMARK INTRA:                   0.249
REMARK UNBOUND:                 0.249
REMARK  Name = C:\DDRIVE\PROJECT\RMPRF\authml\backend\results\ligand_1764578730353.pdb
REMARK  5 active torsions:
REMARK  status: ('A' for Active; 'I' for Inactive)
REMARK    1  A    between atoms: C_2  and  O_3
REMARK    2  A    between atoms: C_2  and  C_4
REMARK    3  A    between atoms: C_4  and  O_5
REMARK    4  A    between atoms: O_5  and  C_6
REMARK    5  A    between atoms: C_9  and  C_10
REMARK                            x       y       z     vdW  Elec       q    Type
REMARK                         _______ _______ _______ _____ _____    ______ ____
ROOT
ATOM      1  C   UNL     1      -5.657  -3.764   1.607  0.00  0.00    +0.000 A 
ATOM      2  C   UNL     1      -4.495  -4.555   1.658  0.00  0.00    +0.000 A 
ATOM      3  C   UNL     1      -3.382  -4.142   2.373  0.00  0.00    +0.000 A 
ATOM      4  C   UNL     1      -3.402  -2.934   3.035  0.00  0.00    +0.000 A 
ATOM      5  C   UNL     1      -4.527  -2.201   3.016  0.00  0.00    +0.000 A 
ATOM      6  C   UNL     1      -5.320  -2.761   2.412  0.00  0.00    +0.000 A 
ENDROOT
BRANCH   4   7
ATOM      7  C   UNL     1      -2.171  -2.439   3.776  0.00  0.00    +0.000 C 
ATOM      8  C   UNL     1      -2.922  -3.227   3.567  0.00  0.00    +0.000 C 
ATOM      9  C   UNL     1      -2.922  -3.227   3.567  0.00  0.00    +0.000 C 
ATOM     10  C   UNL     1      -2.922  -3.227   3.567  0.00  0.00    +0.000 C 
ATOM     11  C   UNL     1      -2.922  -3.227   3.567  0.00  0.00    +0.000 C 
ATOM     12  C   UNL     1      -2.922  -3.227   3.567  0.00  0.00    +0.000 C 
ENDBRANCH   4   7
BRANCH   1  13
ATOM     13  O   UNL     1      -6.913  -3.941   0.967  0.00  0.00    +0.000 OA
BRANCH  13  14
ATOM     14  C   UNL     1      -8.104  -3.980   1.738  0.00  0.00    +0.000 C 
BRANCH  14  16
ATOM     15  O   UNL     1      -8.657  -6.318   2.034  0.00  0.00    +0.000 OA
ATOM     16  C   UNL     1      -8.147  -5.271   2.540  0.00  0.00    +0.000 C 
BRANCH  16  17
ATOM     17  O   UNL     1      -7.616  -5.305   3.858  0.00  0.00    +0.000 OA
ATOM     18  H   UNL     1      -6.633  -5.427   3.997  0.00  0.00    +0.000 HD
ENDBRANCH  16  17
ENDBRANCH  14  16
ENDBRANCH  13  14
ENDBRANCH   1  13
TORSDOF 5
ENDMDL
