MODEL 1
REMARK VINA RESULT:    -2.941      0.000      0.000
REMARK INTER + INTRA:          -3.618
REMARK INTER:                  -3.457
REMARK INTRA:                  -0.162
REMARK UNBOUND:                -0.162
REMARK  Name = results/d1a5523c-7588-4d1a-8879-238527029ddb_ligand.pdb
REMARK  6 active torsions:
REMARK  status: ('A' for Active; 'I' for Inactive)
REMARK    1  A    between atoms: C1_1  and  C2_2
REMARK    2  A    between atoms: C2_2  and  N1_3
REMARK    3  A    between atoms: N1_3  and  C3_4
REMARK    4  A    between atoms: N1_3  and  C5_6
REMARK    5  A    between atoms: C3_4  and  C4_5
REMARK    6  A    between atoms: C5_6  and  C6_7
REMARK                            x       y       z     vdW  Elec       q    Type
REMARK                         _______ _______ _______ _____ _____    ______ ____
ROOT
ATOM      1  N1  UNL     1      -4.535  -3.221   2.198  0.00  0.00    +0.000 NA
ENDROOT
BRANCH   1   3
ATOM      2  C1  UNL     1      -3.641  -4.893   0.631  0.00  0.00    +0.000 C 
ATOM      3  C2  UNL     1      -4.259  -3.507   0.765  0.00  0.00    +0.000 C 
ENDBRANCH   1   3
BRANCH   1   4
ATOM      4  C3  UNL     1      -4.576  -1.766   2.471  0.00  0.00    +0.000 C 
ATOM      5  C4  UNL     1      -5.988  -1.317   2.846  0.00  0.00    +0.000 C 
ENDBRANCH   1   4
BRANCH   1   6
ATOM      6  C5  UNL     1      -3.557  -3.888   3.088  0.00  0.00    +0.000 C 
ATOM      7  C6  UNL     1      -2.626  -2.867   3.742  0.00  0.00    +0.000 C 
ENDBRANCH   1   6
TORSDOF 3
ENDMDL
MODEL 2
REMARK VINA RESULT:    -2.933      0.132      3.136
REMARK INTER + INTRA:          -3.609
REMARK INTER:                  -3.448
REMARK INTRA:                  -0.161
REMARK UNBOUND:                -0.162
REMARK  Name = results/d1a5523c-7588-4d1a-8879-238527029ddb_ligand.pdb
REMARK  6 active torsions:
REMARK  status: ('A' for Active; 'I' for Inactive)
REMARK    1  A    between atoms: C1_1  and  C2_2
REMARK    2  A    between atoms: C2_2  and  N1_3
REMARK    3  A    between atoms: N1_3  and  C3_4
REMARK    4  A    between atoms: N1_3  and  C5_6
REMARK    5  A    between atoms: C3_4  and  C4_5
REMARK    6  A    between atoms: C5_6  and  C6_7
REMARK                            x       y       z     vdW  Elec       q    Type
REMARK                         _______ _______ _______ _____ _____    ______ ____
ROOT
ATOM      1  N1  UNL     1      -4.534  -3.262   2.198  0.00  0.00    +0.000 NA
ENDROOT
BRANCH   1   3
ATOM      2  C1  UNL     1      -5.978  -1.367   2.808  0.00  0.00    +0.000 C 
ATOM      3  C2  UNL     1      -4.580  -1.786   2.369  0.00  0.00    +0.000 C 
ENDBRANCH   1   3
BRANCH   1   4
ATOM      4  C3  UNL     1      -3.632  -3.901   3.183  0.00  0.00    +0.000 C 
ATOM      5  C4  UNL     1      -2.639  -2.890   3.756  0.00  0.00    +0.000 C 
ENDBRANCH   1   4
BRANCH   1   6
ATOM      6  C5  UNL     1      -4.150  -3.644   0.820  0.00  0.00    +0.000 C 
ATOM      7  C6  UNL     1      -3.591  -5.066   0.781  0.00  0.00    +0.000 C 
ENDBRANCH   1   6
TORSDOF 3
ENDMDL
MODEL 3
REMARK VINA RESULT:    -2.929      0.122      3.187
REMARK INTER + INTRA:          -3.605
REMARK INTER:                  -3.444
REMARK INTRA:                  -0.160
REMARK UNBOUND:                -0.162
REMARK  Name = results/d1a5523c-7588-4d1a-8879-238527029ddb_ligand.pdb
REMARK  6 active torsions:
REMARK  status: ('A' for Active; 'I' for Inactive)
REMARK    1  A    between atoms: C1_1  and  C2_2
REMARK    2  A    between atoms: C2_2  and  N1_3
REMARK    3  A    between atoms: N1_3  and  C3_4
REMARK    4  A    between atoms: N1_3  and  C5_6
REMARK    5  A    between atoms: C3_4  and  C4_5
REMARK    6  A    between atoms: C5_6  and  C6_7
REMARK                            x       y       z     vdW  Elec       q    Type
REMARK                         _______ _______ _______ _____ _____    ______ ____
ROOT
ATOM      1  N1  UNL     1      -4.550  -3.199   2.283  0.00  0.00    +0.000 NA
ENDROOT
BRANCH   1   3
ATOM      2  C1  UNL     1      -2.621  -2.918   3.783  0.00  0.00    +0.000 C 
ATOM      3  C2  UNL     1      -3.671  -3.892   3.262  0.00  0.00    +0.000 C 
ENDBRANCH   1   3
BRANCH   1   4
ATOM      4  C3  UNL     1      -4.144  -3.477   0.886  0.00  0.00    +0.000 C 
ATOM      5  C4  UNL     1      -3.648  -4.915   0.735  0.00  0.00    +0.000 C 
ENDBRANCH   1   4
BRANCH   1   6
ATOM      6  C5  UNL     1      -4.599  -1.739   2.526  0.00  0.00    +0.000 C 
ATOM      7  C6  UNL     1      -6.028  -1.278   2.813  0.00  0.00    +0.000 C 
ENDBRANCH   1   6
TORSDOF 3
ENDMDL
MODEL 4
REMARK VINA RESULT:    -2.900      0.632      2.912
REMARK INTER + INTRA:          -3.571
REMARK INTER:                  -3.411
REMARK INTRA:                  -0.159
REMARK UNBOUND:                -0.162
REMARK  Name = results/d1a5523c-7588-4d1a-8879-238527029ddb_ligand.pdb
REMARK  6 active torsions:
REMARK  status: ('A' for Active; 'I' for Inactive)
REMARK    1  A    between atoms: C1_1  and  C2_2
REMARK    2  A    between atoms: C2_2  and  N1_3
REMARK    3  A    between atoms: N1_3  and  C3_4
REMARK    4  A    between atoms: N1_3  and  C5_6
REMARK    5  A    between atoms: C3_4  and  C4_5
REMARK    6  A    between atoms: C5_6  and  C6_7
REMARK                            x       y       z     vdW  Elec       q    Type
REMARK                         _______ _______ _______ _____ _____    ______ ____
ROOT
ATOM      1  N1  UNL     1      -4.271  -3.063   2.056  0.00  0.00    +0.000 NA
ENDROOT
BRANCH   1   3
ATOM      2  C1  UNL     1      -5.862  -1.355   2.829  0.00  0.00    +0.000 C 
ATOM      3  C2  UNL     1      -5.690  -2.814   2.425  0.00  0.00    +0.000 C 
ENDBRANCH   1   3
BRANCH   1   4
ATOM      4  C3  UNL     1      -4.156  -3.793   0.773  0.00  0.00    +0.000 C 
ATOM      5  C4  UNL     1      -3.472  -5.146   0.969  0.00  0.00    +0.000 C 
ENDBRANCH   1   4
BRANCH   1   6
ATOM      6  C5  UNL     1      -3.544  -3.783   3.127  0.00  0.00    +0.000 C 
ATOM      7  C6  UNL     1      -2.558  -2.857   3.838  0.00  0.00    +0.000 C 
ENDBRANCH   1   6
TORSDOF 3
ENDMDL
MODEL 5
REMARK VINA RESULT:    -2.859      0.707      2.413
REMARK INTER + INTRA:          -3.522
REMARK INTER:                  -3.378
REMARK INTRA:                  -0.144
REMARK UNBOUND:                -0.162
REMARK  Name = results/d1a5523c-7588-4d1a-8879-238527029ddb_ligand.pdb
REMARK  6 active torsions:
REMARK  status: ('A' for Active; 'I' for Inactive)
REMARK    1  A    between atoms: C1_1  and  C2_2
REMARK    2  A    between atoms: C2_2  and  N1_3
REMARK    3  A    between atoms: N1_3  and  C3_4
REMARK    4  A    between atoms: N1_3  and  C5_6
REMARK    5  A    between atoms: C3_4  and  C4_5
REMARK    6  A    between atoms: C5_6  and  C6_7
REMARK                            x       y       z     vdW  Elec       q    Type
REMARK                         _______ _______ _______ _____ _____    ______ ____
ROOT
ATOM      1  N1  UNL     1      -4.179  -3.132   1.978  0.00  0.00    +0.000 NA
ENDROOT
BRANCH   1   3
ATOM      2  C1  UNL     1      -3.612  -5.418   1.270  0.00  0.00    +0.000 C 
ATOM      3  C2  UNL     1      -4.004  -4.023   0.800  0.00  0.00    +0.000 C 
ENDBRANCH   1   3
BRANCH   1   4
ATOM      4  C3  UNL     1      -3.598  -3.723   3.205  0.00  0.00    +0.000 C 
ATOM      5  C4  UNL     1      -2.485  -2.838   3.767  0.00  0.00    +0.000 C 
ENDBRANCH   1   4
BRANCH   1   6
ATOM      6  C5  UNL     1      -5.601  -2.781   2.195  0.00  0.00    +0.000 C 
ATOM      7  C6  UNL     1      -5.733  -1.403   2.843  0.00  0.00    +0.000 C 
ENDBRANCH   1   6
TORSDOF 3
ENDMDL
MODEL 6
REMARK VINA RESULT:    -2.663      1.631      3.119
REMARK INTER + INTRA:          -3.291
REMARK INTER:                  -3.135
REMARK INTRA:                  -0.156
REMARK UNBOUND:                -0.162
REMARK  Name = results/d1a5523c-7588-4d1a-8879-238527029ddb_ligand.pdb
REMARK  6 active torsions:
REMARK  status: ('A' for Active; 'I' for Inactive)
REMARK    1  A    between atoms: C1_1  and  C2_2
REMARK    2  A    between atoms: C2_2  and  N1_3
REMARK    3  A    between atoms: N1_3  and  C3_4
REMARK    4  A    between atoms: N1_3  and  C5_6
REMARK    5  A    between atoms: C3_4  and  C4_5
REMARK    6  A    between atoms: C5_6  and  C6_7
REMARK                            x       y       z     vdW  Elec       q    Type
REMARK                         _______ _______ _______ _____ _____    ______ ____
ROOT
ATOM      1  N1  UNL     1      -3.747  -4.898   2.139  0.00  0.00    +0.000 NA
ENDROOT
BRANCH   1   3
ATOM      2  C1  UNL     1      -5.978  -4.631   3.137  0.00  0.00    +0.000 C 
ATOM      3  C2  UNL     1      -5.008  -5.606   2.482  0.00  0.00    +0.000 C 
ENDBRANCH   1   3
BRANCH   1   4
ATOM      4  C3  UNL     1      -3.807  -3.462   2.498  0.00  0.00    +0.000 C 
ATOM      5  C4  UNL     1      -2.732  -3.108   3.526  0.00  0.00    +0.000 C 
ENDBRANCH   1   4
BRANCH   1   6
ATOM      6  C5  UNL     1      -3.398  -5.059   0.708  0.00  0.00    +0.000 C 
ATOM      7  C6  UNL     1      -4.327  -4.232  -0.179  0.00  0.00    +0.000 C 
ENDBRANCH   1   6
TORSDOF 3
ENDMDL
MODEL 7
REMARK VINA RESULT:    -2.660      1.748      2.278
REMARK INTER + INTRA:          -3.288
REMARK INTER:                  -3.137
REMARK INTRA:                  -0.150
REMARK UNBOUND:                -0.162
REMARK  Name = results/d1a5523c-7588-4d1a-8879-238527029ddb_ligand.pdb
REMARK  6 active torsions:
REMARK  status: ('A' for Active; 'I' for Inactive)
REMARK    1  A    between atoms: C1_1  and  C2_2
REMARK    2  A    between atoms: C2_2  and  N1_3
REMARK    3  A    between atoms: N1_3  and  C3_4
REMARK    4  A    between atoms: N1_3  and  C5_6
REMARK    5  A    between atoms: C3_4  and  C4_5
REMARK    6  A    between atoms: C5_6  and  C6_7
REMARK                            x       y       z     vdW  Elec       q    Type
REMARK                         _______ _______ _______ _____ _____    ______ ____
ROOT
ATOM      1  N1  UNL     1      -4.029  -4.940   2.340  0.00  0.00    +0.000 NA
ENDROOT
BRANCH   1   3
ATOM      2  C1  UNL     1      -2.990  -6.210   0.508  0.00  0.00    +0.000 C 
ATOM      3  C2  UNL     1      -3.438  -4.832   0.980  0.00  0.00    +0.000 C 
ENDBRANCH   1   3
BRANCH   1   4
ATOM      4  C3  UNL     1      -5.339  -5.628   2.318  0.00  0.00    +0.000 C 
ATOM      5  C4  UNL     1      -6.407  -4.801   3.035  0.00  0.00    +0.000 C 
ENDBRANCH   1   4
BRANCH   1   6
ATOM      6  C5  UNL     1      -4.150  -3.615   2.992  0.00  0.00    +0.000 C 
ATOM      7  C6  UNL     1      -2.804  -3.151   3.545  0.00  0.00    +0.000 C 
ENDBRANCH   1   6
TORSDOF 3
ENDMDL
MODEL 8
REMARK VINA RESULT:    -2.536      0.817      2.608
REMARK INTER + INTRA:          -3.142
REMARK INTER:                  -3.083
REMARK INTRA:                  -0.059
REMARK UNBOUND:                -0.162
REMARK  Name = results/d1a5523c-7588-4d1a-8879-238527029ddb_ligand.pdb
REMARK  6 active torsions:
REMARK  status: ('A' for Active; 'I' for Inactive)
REMARK    1  A    between atoms: C1_1  and  C2_2
REMARK    2  A    between atoms: C2_2  and  N1_3
REMARK    3  A    between atoms: N1_3  and  C3_4
REMARK    4  A    between atoms: N1_3  and  C5_6
REMARK    5  A    between atoms: C3_4  and  C4_5
REMARK    6  A    between atoms: C5_6  and  C6_7
REMARK                            x       y       z     vdW  Elec       q    Type
REMARK                         _______ _______ _______ _____ _____    ______ ____
ROOT
ATOM      1  N1  UNL     1      -3.982  -3.621   1.883  0.00  0.00    +0.000 NA
ENDROOT
BRANCH   1   3
ATOM      2  C1  UNL     1      -2.467  -2.899   3.680  0.00  0.00    +0.000 C 
ATOM      3  C2  UNL     1      -3.834  -3.487   3.356  0.00  0.00    +0.000 C 
ENDBRANCH   1   3
BRANCH   1   4
ATOM      4  C3  UNL     1      -5.054  -2.746   1.355  0.00  0.00    +0.000 C 
ATOM      5  C4  UNL     1      -5.523  -1.751   2.418  0.00  0.00    +0.000 C 
ENDBRANCH   1   4
BRANCH   1   6
ATOM      6  C5  UNL     1      -4.216  -5.027   1.479  0.00  0.00    +0.000 C 
ATOM      7  C6  UNL     1      -3.214  -5.465   0.412  0.00  0.00    +0.000 C 
ENDBRANCH   1   6
TORSDOF 3
ENDMDL
MODEL 9
REMARK VINA RESULT:    -2.533     13.680     14.779
REMARK INTER + INTRA:          -3.138
REMARK INTER:                  -2.990
REMARK INTRA:                  -0.149
REMARK UNBOUND:                -0.162
REMARK  Name = results/d1a5523c-7588-4d1a-8879-238527029ddb_ligand.pdb
REMARK  6 active torsions:
REMARK  status: ('A' for Active; 'I' for Inactive)
REMARK    1  A    between atoms: C1_1  and  C2_2
REMARK    2  A    between atoms: C2_2  and  N1_3
REMARK    3  A    between atoms: N1_3  and  C3_4
REMARK    4  A    between atoms: N1_3  and  C5_6
REMARK    5  A    between atoms: C3_4  and  C4_5
REMARK    6  A    between atoms: C5_6  and  C6_7
REMARK                            x       y       z     vdW  Elec       q    Type
REMARK                         _______ _______ _______ _____ _____    ______ ____
ROOT
ATOM      1  N1  UNL     1       9.249  -5.118  -2.382  0.00  0.00    +0.000 NA
ENDROOT
BRANCH   1   3
ATOM      2  C1  UNL     1       8.372  -5.861  -0.209  0.00  0.00    +0.000 C 
ATOM      3  C2  UNL     1       9.345  -4.923  -0.911  0.00  0.00    +0.000 C 
ENDBRANCH   1   3
BRANCH   1   4
ATOM      4  C3  UNL     1       8.930  -6.521  -2.732  0.00  0.00    +0.000 C 
ATOM      5  C4  UNL     1       8.535  -6.644  -4.203  0.00  0.00    +0.000 C 
ENDBRANCH   1   4
BRANCH   1   6
ATOM      6  C5  UNL     1      10.481  -4.678  -3.076  0.00  0.00    +0.000 C 
ATOM      7  C6  UNL     1      10.683  -3.170  -2.933  0.00  0.00    +0.000 C 
ENDBRANCH   1   6
TORSDOF 3
ENDMDL
