MODEL 1
REMARK VINA RESULT:    -2.943      0.000      0.000
REMARK INTER + INTRA:          -3.618
REMARK INTER:                  -3.459
REMARK INTRA:                  -0.160
REMARK UNBOUND:                -0.160
REMARK  Name = results/aa0f0d09-3066-4165-b940-f9cd78bfdc03_ligand.pdb
REMARK  6 active torsions:
REMARK  status: ('A' for Active; 'I' for Inactive)
REMARK    1  A    between atoms: C1_1  and  C2_2
REMARK    2  A    between atoms: C2_2  and  N1_3
REMARK    3  A    between atoms: N1_3  and  C3_4
REMARK    4  A    between atoms: N1_3  and  C5_6
REMARK    5  A    between atoms: C3_4  and  C4_5
REMARK    6  A    between atoms: C5_6  and  C6_7
REMARK                            x       y       z     vdW  Elec       q    Type
REMARK                         _______ _______ _______ _____ _____    ______ ____
ROOT
ATOM      1  N1  UNL     1      -4.523  -3.191   2.206  0.00  0.00    +0.000 NA
ENDROOT
BRANCH   1   3
ATOM      2  C1  UNL     1      -2.592  -2.887   3.807  0.00  0.00    +0.000 C 
ATOM      3  C2  UNL     1      -3.620  -3.844   3.182  0.00  0.00    +0.000 C 
ENDBRANCH   1   3
BRANCH   1   4
ATOM      4  C3  UNL     1      -4.220  -3.558   0.802  0.00  0.00    +0.000 C 
ATOM      5  C4  UNL     1      -3.586  -4.942   0.765  0.00  0.00    +0.000 C 
ENDBRANCH   1   4
BRANCH   1   6
ATOM      6  C5  UNL     1      -4.640  -1.733   2.423  0.00  0.00    +0.000 C 
ATOM      7  C6  UNL     1      -6.070  -1.350   2.790  0.00  0.00    +0.000 C 
ENDBRANCH   1   6
TORSDOF 3
ENDMDL
MODEL 2
REMARK VINA RESULT:    -2.921      0.090      3.207
REMARK INTER + INTRA:          -3.593
REMARK INTER:                  -3.435
REMARK INTRA:                  -0.157
REMARK UNBOUND:                -0.160
REMARK  Name = results/aa0f0d09-3066-4165-b940-f9cd78bfdc03_ligand.pdb
REMARK  6 active torsions:
REMARK  status: ('A' for Active; 'I' for Inactive)
REMARK    1  A    between atoms: C1_1  and  C2_2
REMARK    2  A    between atoms: C2_2  and  N1_3
REMARK    3  A    between atoms: N1_3  and  C3_4
REMARK    4  A    between atoms: N1_3  and  C5_6
REMARK    5  A    between atoms: C3_4  and  C4_5
REMARK    6  A    between atoms: C5_6  and  C6_7
REMARK                            x       y       z     vdW  Elec       q    Type
REMARK                         _______ _______ _______ _____ _____    ______ ____
ROOT
ATOM      1  N1  UNL     1      -4.501  -3.172   2.292  0.00  0.00    +0.000 NA
ENDROOT
BRANCH   1   3
ATOM      2  C1  UNL     1      -3.649  -4.924   0.684  0.00  0.00    +0.000 C 
ATOM      3  C2  UNL     1      -4.232  -3.515   0.877  0.00  0.00    +0.000 C 
ENDBRANCH   1   3
BRANCH   1   4
ATOM      4  C3  UNL     1      -4.627  -1.712   2.519  0.00  0.00    +0.000 C 
ATOM      5  C4  UNL     1      -6.097  -1.348   2.681  0.00  0.00    +0.000 C 
ENDBRANCH   1   4
BRANCH   1   6
ATOM      6  C5  UNL     1      -3.570  -3.836   3.228  0.00  0.00    +0.000 C 
ATOM      7  C6  UNL     1      -2.562  -2.839   3.793  0.00  0.00    +0.000 C 
ENDBRANCH   1   6
TORSDOF 3
ENDMDL
MODEL 3
REMARK VINA RESULT:    -2.885      0.604      2.923
REMARK INTER + INTRA:          -3.551
REMARK INTER:                  -3.398
REMARK INTRA:                  -0.152
REMARK UNBOUND:                -0.160
REMARK  Name = results/aa0f0d09-3066-4165-b940-f9cd78bfdc03_ligand.pdb
REMARK  6 active torsions:
REMARK  status: ('A' for Active; 'I' for Inactive)
REMARK    1  A    between atoms: C1_1  and  C2_2
REMARK    2  A    between atoms: C2_2  and  N1_3
REMARK    3  A    between atoms: N1_3  and  C3_4
REMARK    4  A    between atoms: N1_3  and  C5_6
REMARK    5  A    between atoms: C3_4  and  C4_5
REMARK    6  A    between atoms: C5_6  and  C6_7
REMARK                            x       y       z     vdW  Elec       q    Type
REMARK                         _______ _______ _______ _____ _____    ______ ____
ROOT
ATOM      1  N1  UNL     1      -4.321  -3.093   2.014  0.00  0.00    +0.000 NA
ENDROOT
BRANCH   1   3
ATOM      2  C1  UNL     1      -2.551  -2.867   3.802  0.00  0.00    +0.000 C 
ATOM      3  C2  UNL     1      -3.590  -3.766   3.113  0.00  0.00    +0.000 C 
ENDBRANCH   1   3
BRANCH   1   4
ATOM      4  C3  UNL     1      -5.721  -2.761   2.371  0.00  0.00    +0.000 C 
ATOM      5  C4  UNL     1      -5.794  -1.320   2.858  0.00  0.00    +0.000 C 
ENDBRANCH   1   4
BRANCH   1   6
ATOM      6  C5  UNL     1      -4.193  -3.804   0.724  0.00  0.00    +0.000 C 
ATOM      7  C6  UNL     1      -3.482  -5.141   0.907  0.00  0.00    +0.000 C 
ENDBRANCH   1   6
TORSDOF 3
ENDMDL
MODEL 4
REMARK VINA RESULT:    -2.884      0.606      2.539
REMARK INTER + INTRA:          -3.550
REMARK INTER:                  -3.399
REMARK INTRA:                  -0.151
REMARK UNBOUND:                -0.160
REMARK  Name = results/aa0f0d09-3066-4165-b940-f9cd78bfdc03_ligand.pdb
REMARK  6 active torsions:
REMARK  status: ('A' for Active; 'I' for Inactive)
REMARK    1  A    between atoms: C1_1  and  C2_2
REMARK    2  A    between atoms: C2_2  and  N1_3
REMARK    3  A    between atoms: N1_3  and  C3_4
REMARK    4  A    between atoms: N1_3  and  C5_6
REMARK    5  A    between atoms: C3_4  and  C4_5
REMARK    6  A    between atoms: C5_6  and  C6_7
REMARK                            x       y       z     vdW  Elec       q    Type
REMARK                         _______ _______ _______ _____ _____    ______ ____
ROOT
ATOM      1  N1  UNL     1      -4.324  -3.065   2.050  0.00  0.00    +0.000 NA
ENDROOT
BRANCH   1   3
ATOM      2  C1  UNL     1      -3.619  -4.932   0.502  0.00  0.00    +0.000 C 
ATOM      3  C2  UNL     1      -4.398  -3.619   0.679  0.00  0.00    +0.000 C 
ENDBRANCH   1   3
BRANCH   1   4
ATOM      4  C3  UNL     1      -3.428  -3.841   2.940  0.00  0.00    +0.000 C 
ATOM      5  C4  UNL     1      -2.618  -2.885   3.805  0.00  0.00    +0.000 C 
ENDBRANCH   1   4
BRANCH   1   6
ATOM      6  C5  UNL     1      -5.657  -2.806   2.635  0.00  0.00    +0.000 C 
ATOM      7  C6  UNL     1      -5.877  -1.312   2.850  0.00  0.00    +0.000 C 
ENDBRANCH   1   6
TORSDOF 3
ENDMDL
MODEL 5
REMARK VINA RESULT:    -2.879      0.283      3.133
REMARK INTER + INTRA:          -3.543
REMARK INTER:                  -3.387
REMARK INTRA:                  -0.156
REMARK UNBOUND:                -0.160
REMARK  Name = results/aa0f0d09-3066-4165-b940-f9cd78bfdc03_ligand.pdb
REMARK  6 active torsions:
REMARK  status: ('A' for Active; 'I' for Inactive)
REMARK    1  A    between atoms: C1_1  and  C2_2
REMARK    2  A    between atoms: C2_2  and  N1_3
REMARK    3  A    between atoms: N1_3  and  C3_4
REMARK    4  A    between atoms: N1_3  and  C5_6
REMARK    5  A    between atoms: C3_4  and  C4_5
REMARK    6  A    between atoms: C5_6  and  C6_7
REMARK                            x       y       z     vdW  Elec       q    Type
REMARK                         _______ _______ _______ _____ _____    ______ ____
ROOT
ATOM      1  N1  UNL     1      -4.560  -3.213   2.269  0.00  0.00    +0.000 NA
ENDROOT
BRANCH   1   3
ATOM      2  C1  UNL     1      -6.223  -1.364   2.712  0.00  0.00    +0.000 C 
ATOM      3  C2  UNL     1      -4.755  -1.819   2.729  0.00  0.00    +0.000 C 
ENDBRANCH   1   3
BRANCH   1   4
ATOM      4  C3  UNL     1      -3.498  -3.926   3.019  0.00  0.00    +0.000 C 
ATOM      5  C4  UNL     1      -2.615  -2.913   3.736  0.00  0.00    +0.000 C 
ENDBRANCH   1   4
BRANCH   1   6
ATOM      6  C5  UNL     1      -4.415  -3.315   0.801  0.00  0.00    +0.000 C 
ATOM      7  C6  UNL     1      -3.809  -4.659   0.406  0.00  0.00    +0.000 C 
ENDBRANCH   1   6
TORSDOF 3
ENDMDL
MODEL 6
REMARK VINA RESULT:    -2.830      1.221      2.637
REMARK INTER + INTRA:          -3.486
REMARK INTER:                  -3.356
REMARK INTRA:                  -0.131
REMARK UNBOUND:                -0.160
REMARK  Name = results/aa0f0d09-3066-4165-b940-f9cd78bfdc03_ligand.pdb
REMARK  6 active torsions:
REMARK  status: ('A' for Active; 'I' for Inactive)
REMARK    1  A    between atoms: C1_1  and  C2_2
REMARK    2  A    between atoms: C2_2  and  N1_3
REMARK    3  A    between atoms: N1_3  and  C3_4
REMARK    4  A    between atoms: N1_3  and  C5_6
REMARK    5  A    between atoms: C3_4  and  C4_5
REMARK    6  A    between atoms: C5_6  and  C6_7
REMARK                            x       y       z     vdW  Elec       q    Type
REMARK                         _______ _______ _______ _____ _____    ______ ____
ROOT
ATOM      1  N1  UNL     1      -3.633  -4.011   1.709  0.00  0.00    +0.000 NA
ENDROOT
BRANCH   1   3
ATOM      2  C1  UNL     1      -4.907  -1.956   0.976  0.00  0.00    +0.000 C 
ATOM      3  C2  UNL     1      -4.431  -3.377   0.634  0.00  0.00    +0.000 C 
ENDBRANCH   1   3
BRANCH   1   4
ATOM      4  C3  UNL     1      -3.667  -5.492   1.656  0.00  0.00    +0.000 C 
ATOM      5  C4  UNL     1      -3.000  -5.971   0.373  0.00  0.00    +0.000 C 
ENDBRANCH   1   4
BRANCH   1   6
ATOM      6  C5  UNL     1      -3.937  -3.460   3.047  0.00  0.00    +0.000 C 
ATOM      7  C6  UNL     1      -2.665  -2.980   3.739  0.00  0.00    +0.000 C 
ENDBRANCH   1   6
TORSDOF 3
ENDMDL
MODEL 7
REMARK VINA RESULT:    -2.801      1.197      2.841
REMARK INTER + INTRA:          -3.452
REMARK INTER:                  -3.318
REMARK INTRA:                  -0.134
REMARK UNBOUND:                -0.160
REMARK  Name = results/aa0f0d09-3066-4165-b940-f9cd78bfdc03_ligand.pdb
REMARK  6 active torsions:
REMARK  status: ('A' for Active; 'I' for Inactive)
REMARK    1  A    between atoms: C1_1  and  C2_2
REMARK    2  A    between atoms: C2_2  and  N1_3
REMARK    3  A    between atoms: N1_3  and  C3_4
REMARK    4  A    between atoms: N1_3  and  C5_6
REMARK    5  A    between atoms: C3_4  and  C4_5
REMARK    6  A    between atoms: C5_6  and  C6_7
REMARK                            x       y       z     vdW  Elec       q    Type
REMARK                         _______ _______ _______ _____ _____    ______ ____
ROOT
ATOM      1  N1  UNL     1      -3.627  -3.912   1.676  0.00  0.00    +0.000 NA
ENDROOT
BRANCH   1   3
ATOM      2  C1  UNL     1      -2.900  -6.000   0.454  0.00  0.00    +0.000 C 
ATOM      3  C2  UNL     1      -3.658  -5.392   1.645  0.00  0.00    +0.000 C 
ENDBRANCH   1   3
BRANCH   1   4
ATOM      4  C3  UNL     1      -3.919  -3.356   3.019  0.00  0.00    +0.000 C 
ATOM      5  C4  UNL     1      -2.612  -3.007   3.719  0.00  0.00    +0.000 C 
ENDBRANCH   1   4
BRANCH   1   6
ATOM      6  C5  UNL     1      -4.432  -3.301   0.597  0.00  0.00    +0.000 C 
ATOM      7  C6  UNL     1      -4.936  -1.920   1.008  0.00  0.00    +0.000 C 
ENDBRANCH   1   6
TORSDOF 3
ENDMDL
MODEL 8
REMARK VINA RESULT:    -2.502      1.511      2.548
REMARK INTER + INTRA:          -3.100
REMARK INTER:                  -2.904
REMARK INTRA:                  -0.197
REMARK UNBOUND:                -0.160
REMARK  Name = results/aa0f0d09-3066-4165-b940-f9cd78bfdc03_ligand.pdb
REMARK  6 active torsions:
REMARK  status: ('A' for Active; 'I' for Inactive)
REMARK    1  A    between atoms: C1_1  and  C2_2
REMARK    2  A    between atoms: C2_2  and  N1_3
REMARK    3  A    between atoms: N1_3  and  C3_4
REMARK    4  A    between atoms: N1_3  and  C5_6
REMARK    5  A    between atoms: C3_4  and  C4_5
REMARK    6  A    between atoms: C5_6  and  C6_7
REMARK                            x       y       z     vdW  Elec       q    Type
REMARK                         _______ _______ _______ _____ _____    ______ ____
ROOT
ATOM      1  N1  UNL     1      -4.606  -3.513   2.032  0.00  0.00    +0.000 NA
ENDROOT
BRANCH   1   3
ATOM      2  C1  UNL     1      -2.765  -2.962   3.672  0.00  0.00    +0.000 C 
ATOM      3  C2  UNL     1      -3.374  -3.988   2.703  0.00  0.00    +0.000 C 
ENDBRANCH   1   3
BRANCH   1   4
ATOM      4  C3  UNL     1      -5.177  -2.299   2.663  0.00  0.00    +0.000 C 
ATOM      5  C4  UNL     1      -5.501  -1.272   1.587  0.00  0.00    +0.000 C 
ENDBRANCH   1   4
BRANCH   1   6
ATOM      6  C5  UNL     1      -5.595  -4.592   1.825  0.00  0.00    +0.000 C 
ATOM      7  C6  UNL     1      -6.508  -4.734   3.039  0.00  0.00    +0.000 C 
ENDBRANCH   1   6
TORSDOF 3
ENDMDL
MODEL 9
REMARK VINA RESULT:    -2.494     13.725     14.781
REMARK INTER + INTRA:          -3.091
REMARK INTER:                  -2.948
REMARK INTRA:                  -0.143
REMARK UNBOUND:                -0.160
REMARK  Name = results/aa0f0d09-3066-4165-b940-f9cd78bfdc03_ligand.pdb
REMARK  6 active torsions:
REMARK  status: ('A' for Active; 'I' for Inactive)
REMARK    1  A    between atoms: C1_1  and  C2_2
REMARK    2  A    between atoms: C2_2  and  N1_3
REMARK    3  A    between atoms: N1_3  and  C3_4
REMARK    4  A    between atoms: N1_3  and  C5_6
REMARK    5  A    between atoms: C3_4  and  C4_5
REMARK    6  A    between atoms: C5_6  and  C6_7
REMARK                            x       y       z     vdW  Elec       q    Type
REMARK                         _______ _______ _______ _____ _____    ______ ____
ROOT
ATOM      1  N1  UNL     1       9.791  -4.948  -1.990  0.00  0.00    +0.000 NA
ENDROOT
BRANCH   1   3
ATOM      2  C1  UNL     1       8.393  -5.849  -0.088  0.00  0.00    +0.000 C 
ATOM      3  C2  UNL     1       8.426  -5.120  -1.440  0.00  0.00    +0.000 C 
ENDBRANCH   1   3
BRANCH   1   4
ATOM      4  C3  UNL     1      10.286  -3.554  -1.883  0.00  0.00    +0.000 C 
ATOM      5  C4  UNL     1      10.815  -3.097  -3.236  0.00  0.00    +0.000 C 
ENDBRANCH   1   4
BRANCH   1   6
ATOM      6  C5  UNL     1       9.939  -5.524  -3.343  0.00  0.00    +0.000 C 
ATOM      7  C6  UNL     1       8.730  -6.383  -3.704  0.00  0.00    +0.000 C 
ENDBRANCH   1   6
TORSDOF 3
ENDMDL
