MODEL 1
REMARK VINA RESULT:    -2.948      0.000      0.000
REMARK INTER + INTRA:          -3.618
REMARK INTER:                  -3.465
REMARK INTRA:                  -0.154
REMARK UNBOUND:                -0.154
REMARK  Name = C:\DDRIVE\PROJECT\authml1\authml\backend\results\ligand_1764479608977.pdb
REMARK  6 active torsions:
REMARK  status: ('A' for Active; 'I' for Inactive)
REMARK    1  A    between atoms: C_1  and  C_2
REMARK    2  A    between atoms: C_2  and  N_3
REMARK    3  A    between atoms: N_3  and  C_4
REMARK    4  A    between atoms: N_3  and  C_6
REMARK    5  A    between atoms: C_4  and  C_5
REMARK    6  A    between atoms: C_6  and  C_7
REMARK                            x       y       z     vdW  Elec       q    Type
REMARK                         _______ _______ _______ _____ _____    ______ ____
ROOT
ATOM      1  N   UNL     1      -4.479  -3.231   2.152  0.00  0.00    +0.000 NA
ENDROOT
BRANCH   1   3
ATOM      2  C   UNL     1      -2.610  -2.883   3.780  0.00  0.00    +0.000 C 
ATOM      3  C   UNL     1      -3.493  -3.877   3.028  0.00  0.00    +0.000 C 
ENDBRANCH   1   3
BRANCH   1   4
ATOM      4  C   UNL     1      -4.609  -1.776   2.365  0.00  0.00    +0.000 C 
ATOM      5  C   UNL     1      -5.951  -1.279   2.896  0.00  0.00    +0.000 C 
ENDBRANCH   1   4
BRANCH   1   6
ATOM      6  C   UNL     1      -4.267  -3.545   0.731  0.00  0.00    +0.000 C 
ATOM      7  C   UNL     1      -3.626  -4.913   0.511  0.00  0.00    +0.000 C 
ENDBRANCH   1   6
TORSDOF 3
ENDMDL
MODEL 2
REMARK VINA RESULT:    -2.943      0.217      3.149
REMARK INTER + INTRA:          -3.613
REMARK INTER:                  -3.456
REMARK INTRA:                  -0.157
REMARK UNBOUND:                -0.154
REMARK  Name = C:\DDRIVE\PROJECT\authml1\authml\backend\results\ligand_1764479608977.pdb
REMARK  6 active torsions:
REMARK  status: ('A' for Active; 'I' for Inactive)
REMARK    1  A    between atoms: C_1  and  C_2
REMARK    2  A    between atoms: C_2  and  N_3
REMARK    3  A    between atoms: N_3  and  C_4
REMARK    4  A    between atoms: N_3  and  C_6
REMARK    5  A    between atoms: C_4  and  C_5
REMARK    6  A    between atoms: C_6  and  C_7
REMARK                            x       y       z     vdW  Elec       q    Type
REMARK                         _______ _______ _______ _____ _____    ______ ____
ROOT
ATOM      1  N   UNL     1      -4.498  -3.263   2.158  0.00  0.00    +0.000 NA
ENDROOT
BRANCH   1   3
ATOM      2  C   UNL     1      -3.501  -5.126   0.817  0.00  0.00    +0.000 C 
ATOM      3  C   UNL     1      -4.099  -3.720   0.821  0.00  0.00    +0.000 C 
ENDBRANCH   1   3
BRANCH   1   4
ATOM      4  C   UNL     1      -3.665  -3.802   3.250  0.00  0.00    +0.000 C 
ATOM      5  C   UNL     1      -2.581  -2.881   3.804  0.00  0.00    +0.000 C 
ENDBRANCH   1   4
BRANCH   1   6
ATOM      6  C   UNL     1      -4.610  -1.799   2.247  0.00  0.00    +0.000 C 
ATOM      7  C   UNL     1      -5.936  -1.337   2.844  0.00  0.00    +0.000 C 
ENDBRANCH   1   6
TORSDOF 3
ENDMDL
MODEL 3
REMARK VINA RESULT:    -2.923      0.381      3.297
REMARK INTER + INTRA:          -3.590
REMARK INTER:                  -3.443
REMARK INTRA:                  -0.146
REMARK UNBOUND:                -0.154
REMARK  Name = C:\DDRIVE\PROJECT\authml1\authml\backend\results\ligand_1764479608977.pdb
REMARK  6 active torsions:
REMARK  status: ('A' for Active; 'I' for Inactive)
REMARK    1  A    between atoms: C_1  and  C_2
REMARK    2  A    between atoms: C_2  and  N_3
REMARK    3  A    between atoms: N_3  and  C_4
REMARK    4  A    between atoms: N_3  and  C_6
REMARK    5  A    between atoms: C_4  and  C_5
REMARK    6  A    between atoms: C_6  and  C_7
REMARK                            x       y       z     vdW  Elec       q    Type
REMARK                         _______ _______ _______ _____ _____    ______ ____
ROOT
ATOM      1  N   UNL     1      -4.488  -3.337   2.158  0.00  0.00    +0.000 NA
ENDROOT
BRANCH   1   3
ATOM      2  C   UNL     1      -5.865  -1.373   2.873  0.00  0.00    +0.000 C 
ATOM      3  C   UNL     1      -4.624  -1.874   2.137  0.00  0.00    +0.000 C 
ENDBRANCH   1   3
BRANCH   1   4
ATOM      4  C   UNL     1      -3.914  -3.903   0.922  0.00  0.00    +0.000 C 
ATOM      5  C   UNL     1      -3.459  -5.359   0.983  0.00  0.00    +0.000 C 
ENDBRANCH   1   4
BRANCH   1   6
ATOM      6  C   UNL     1      -3.775  -3.823   3.349  0.00  0.00    +0.000 C 
ATOM      7  C   UNL     1      -2.612  -2.921   3.758  0.00  0.00    +0.000 C 
ENDBRANCH   1   6
TORSDOF 3
ENDMDL
MODEL 4
REMARK VINA RESULT:    -2.891      0.622      2.521
REMARK INTER + INTRA:          -3.552
REMARK INTER:                  -3.400
REMARK INTRA:                  -0.152
REMARK UNBOUND:                -0.154
REMARK  Name = C:\DDRIVE\PROJECT\authml1\authml\backend\results\ligand_1764479608977.pdb
REMARK  6 active torsions:
REMARK  status: ('A' for Active; 'I' for Inactive)
REMARK    1  A    between atoms: C_1  and  C_2
REMARK    2  A    between atoms: C_2  and  N_3
REMARK    3  A    between atoms: N_3  and  C_4
REMARK    4  A    between atoms: N_3  and  C_6
REMARK    5  A    between atoms: C_4  and  C_5
REMARK    6  A    between atoms: C_6  and  C_7
REMARK                            x       y       z     vdW  Elec       q    Type
REMARK                         _______ _______ _______ _____ _____    ______ ____
ROOT
ATOM      1  N   UNL     1      -4.265  -3.153   1.976  0.00  0.00    +0.000 NA
ENDROOT
BRANCH   1   3
ATOM      2  C   UNL     1      -3.396  -5.247   0.915  0.00  0.00    +0.000 C 
ATOM      3  C   UNL     1      -4.148  -3.930   0.734  0.00  0.00    +0.000 C 
ENDBRANCH   1   3
BRANCH   1   4
ATOM      4  C   UNL     1      -5.651  -2.779   2.321  0.00  0.00    +0.000 C 
ATOM      5  C   UNL     1      -5.864  -1.370   2.866  0.00  0.00    +0.000 C 
ENDBRANCH   1   4
BRANCH   1   6
ATOM      6  C   UNL     1      -3.588  -3.795   3.112  0.00  0.00    +0.000 C 
ATOM      7  C   UNL     1      -2.568  -2.884   3.791  0.00  0.00    +0.000 C 
ENDBRANCH   1   6
TORSDOF 3
ENDMDL
MODEL 5
REMARK VINA RESULT:    -2.871      0.590      2.940
REMARK INTER + INTRA:          -3.528
REMARK INTER:                  -3.375
REMARK INTRA:                  -0.153
REMARK UNBOUND:                -0.154
REMARK  Name = C:\DDRIVE\PROJECT\authml1\authml\backend\results\ligand_1764479608977.pdb
REMARK  6 active torsions:
REMARK  status: ('A' for Active; 'I' for Inactive)
REMARK    1  A    between atoms: C_1  and  C_2
REMARK    2  A    between atoms: C_2  and  N_3
REMARK    3  A    between atoms: N_3  and  C_4
REMARK    4  A    between atoms: N_3  and  C_6
REMARK    5  A    between atoms: C_4  and  C_5
REMARK    6  A    between atoms: C_6  and  C_7
REMARK                            x       y       z     vdW  Elec       q    Type
REMARK                         _______ _______ _______ _____ _____    ______ ____
ROOT
ATOM      1  N   UNL     1      -4.376  -2.922   2.145  0.00  0.00    +0.000 NA
ENDROOT
BRANCH   1   3
ATOM      2  C   UNL     1      -2.530  -2.843   3.832  0.00  0.00    +0.000 C 
ATOM      3  C   UNL     1      -3.635  -3.665   3.174  0.00  0.00    +0.000 C 
ENDBRANCH   1   3
BRANCH   1   4
ATOM      4  C   UNL     1      -4.286  -3.514   0.796  0.00  0.00    +0.000 C 
ATOM      5  C   UNL     1      -3.659  -4.902   0.698  0.00  0.00    +0.000 C 
ENDBRANCH   1   4
BRANCH   1   6
ATOM      6  C   UNL     1      -5.774  -2.671   2.524  0.00  0.00    +0.000 C 
ATOM      7  C   UNL     1      -6.032  -1.220   2.926  0.00  0.00    +0.000 C 
ENDBRANCH   1   6
TORSDOF 3
ENDMDL
MODEL 6
REMARK VINA RESULT:    -2.698      1.656      2.216
REMARK INTER + INTRA:          -3.325
REMARK INTER:                  -3.138
REMARK INTRA:                  -0.187
REMARK UNBOUND:                -0.154
REMARK  Name = C:\DDRIVE\PROJECT\authml1\authml\backend\results\ligand_1764479608977.pdb
REMARK  6 active torsions:
REMARK  status: ('A' for Active; 'I' for Inactive)
REMARK    1  A    between atoms: C_1  and  C_2
REMARK    2  A    between atoms: C_2  and  N_3
REMARK    3  A    between atoms: N_3  and  C_4
REMARK    4  A    between atoms: N_3  and  C_6
REMARK    5  A    between atoms: C_4  and  C_5
REMARK    6  A    between atoms: C_6  and  C_7
REMARK                            x       y       z     vdW  Elec       q    Type
REMARK                         _______ _______ _______ _____ _____    ______ ____
ROOT
ATOM      1  N   UNL     1      -3.748  -4.885   2.183  0.00  0.00    +0.000 NA
ENDROOT
BRANCH   1   3
ATOM      2  C   UNL     1      -2.752  -3.106   3.634  0.00  0.00    +0.000 C 
ATOM      3  C   UNL     1      -3.714  -3.451   2.500  0.00  0.00    +0.000 C 
ENDBRANCH   1   3
BRANCH   1   4
ATOM      4  C   UNL     1      -5.012  -5.551   2.551  0.00  0.00    +0.000 C 
ATOM      5  C   UNL     1      -6.127  -4.657   3.087  0.00  0.00    +0.000 C 
ENDBRANCH   1   4
BRANCH   1   6
ATOM      6  C   UNL     1      -3.385  -5.165   0.786  0.00  0.00    +0.000 C 
ATOM      7  C   UNL     1      -4.239  -4.397  -0.219  0.00  0.00    +0.000 C 
ENDBRANCH   1   6
TORSDOF 3
ENDMDL
MODEL 7
REMARK VINA RESULT:    -2.694      0.986      2.544
REMARK INTER + INTRA:          -3.320
REMARK INTER:                  -3.177
REMARK INTRA:                  -0.143
REMARK UNBOUND:                -0.154
REMARK  Name = C:\DDRIVE\PROJECT\authml1\authml\backend\results\ligand_1764479608977.pdb
REMARK  6 active torsions:
REMARK  status: ('A' for Active; 'I' for Inactive)
REMARK    1  A    between atoms: C_1  and  C_2
REMARK    2  A    between atoms: C_2  and  N_3
REMARK    3  A    between atoms: N_3  and  C_4
REMARK    4  A    between atoms: N_3  and  C_6
REMARK    5  A    between atoms: C_4  and  C_5
REMARK    6  A    between atoms: C_6  and  C_7
REMARK                            x       y       z     vdW  Elec       q    Type
REMARK                         _______ _______ _______ _____ _____    ______ ____
ROOT
ATOM      1  N   UNL     1      -3.872  -3.533   1.761  0.00  0.00    +0.000 NA
ENDROOT
BRANCH   1   3
ATOM      2  C   UNL     1      -5.562  -1.728   2.152  0.00  0.00    +0.000 C 
ATOM      3  C   UNL     1      -5.161  -2.961   1.346  0.00  0.00    +0.000 C 
ENDBRANCH   1   3
BRANCH   1   4
ATOM      4  C   UNL     1      -3.704  -3.635   3.223  0.00  0.00    +0.000 C 
ATOM      5  C   UNL     1      -2.538  -2.863   3.834  0.00  0.00    +0.000 C 
ENDBRANCH   1   4
BRANCH   1   6
ATOM      6  C   UNL     1      -3.581  -4.813   1.100  0.00  0.00    +0.000 C 
ATOM      7  C   UNL     1      -4.173  -6.013   1.836  0.00  0.00    +0.000 C 
ENDBRANCH   1   6
TORSDOF 3
ENDMDL
MODEL 8
REMARK VINA RESULT:    -2.512      1.455      3.204
REMARK INTER + INTRA:          -3.107
REMARK INTER:                  -3.024
REMARK INTRA:                  -0.083
REMARK UNBOUND:                -0.154
REMARK  Name = C:\DDRIVE\PROJECT\authml1\authml\backend\results\ligand_1764479608977.pdb
REMARK  6 active torsions:
REMARK  status: ('A' for Active; 'I' for Inactive)
REMARK    1  A    between atoms: C_1  and  C_2
REMARK    2  A    between atoms: C_2  and  N_3
REMARK    3  A    between atoms: N_3  and  C_4
REMARK    4  A    between atoms: N_3  and  C_6
REMARK    5  A    between atoms: C_4  and  C_5
REMARK    6  A    between atoms: C_6  and  C_7
REMARK                            x       y       z     vdW  Elec       q    Type
REMARK                         _______ _______ _______ _____ _____    ______ ____
ROOT
ATOM      1  N   UNL     1      -4.622  -1.955   2.106  0.00  0.00    +0.000 NA
ENDROOT
BRANCH   1   3
ATOM      2  C   UNL     1      -7.112  -1.853   2.336  0.00  0.00    +0.000 C 
ATOM      3  C   UNL     1      -5.753  -1.390   2.855  0.00  0.00    +0.000 C 
ENDBRANCH   1   3
BRANCH   1   4
ATOM      4  C   UNL     1      -4.041  -3.165   2.718  0.00  0.00    +0.000 C 
ATOM      5  C   UNL     1      -2.794  -2.967   3.576  0.00  0.00    +0.000 C 
ENDBRANCH   1   4
BRANCH   1   6
ATOM      6  C   UNL     1      -4.935  -2.173   0.686  0.00  0.00    +0.000 C 
ATOM      7  C   UNL     1      -4.710  -0.931  -0.173  0.00  0.00    +0.000 C 
ENDBRANCH   1   6
TORSDOF 3
ENDMDL
MODEL 9
REMARK VINA RESULT:    -2.486      1.318      3.623
REMARK INTER + INTRA:          -3.076
REMARK INTER:                  -2.894
REMARK INTRA:                  -0.182
REMARK UNBOUND:                -0.154
REMARK  Name = C:\DDRIVE\PROJECT\authml1\authml\backend\results\ligand_1764479608977.pdb
REMARK  6 active torsions:
REMARK  status: ('A' for Active; 'I' for Inactive)
REMARK    1  A    between atoms: C_1  and  C_2
REMARK    2  A    between atoms: C_2  and  N_3
REMARK    3  A    between atoms: N_3  and  C_4
REMARK    4  A    between atoms: N_3  and  C_6
REMARK    5  A    between atoms: C_4  and  C_5
REMARK    6  A    between atoms: C_6  and  C_7
REMARK                            x       y       z     vdW  Elec       q    Type
REMARK                         _______ _______ _______ _____ _____    ______ ____
ROOT
ATOM      1  N   UNL     1      -4.745  -4.078   1.943  0.00  0.00    +0.000 NA
ENDROOT
BRANCH   1   3
ATOM      2  C   UNL     1      -4.927  -2.999  -0.308  0.00  0.00    +0.000 C 
ATOM      3  C   UNL     1      -4.135  -3.922   0.616  0.00  0.00    +0.000 C 
ENDBRANCH   1   3
BRANCH   1   4
ATOM      4  C   UNL     1      -4.567  -5.420   2.531  0.00  0.00    +0.000 C 
ATOM      5  C   UNL     1      -3.836  -6.451   1.675  0.00  0.00    +0.000 C 
ENDBRANCH   1   4
BRANCH   1   6
ATOM      6  C   UNL     1      -4.332  -3.026   2.884  0.00  0.00    +0.000 C 
ATOM      7  C   UNL     1      -2.919  -3.229   3.424  0.00  0.00    +0.000 C 
ENDBRANCH   1   6
TORSDOF 3
ENDMDL
