MODEL 1
REMARK VINA RESULT:    -2.948      0.000      0.000
REMARK INTER + INTRA:          -3.621
REMARK INTER:                  -3.466
REMARK INTRA:                  -0.156
REMARK UNBOUND:                -0.156
REMARK  Name = C:\DDRIVE\PROJECT\rmpr\authml\backend\results\ligand_1764487019612.pdb
REMARK  6 active torsions:
REMARK  status: ('A' for Active; 'I' for Inactive)
REMARK    1  A    between atoms: C_1  and  C_2
REMARK    2  A    between atoms: C_2  and  N_3
REMARK    3  A    between atoms: N_3  and  C_4
REMARK    4  A    between atoms: N_3  and  C_6
REMARK    5  A    between atoms: C_4  and  C_5
REMARK    6  A    between atoms: C_6  and  C_7
REMARK                            x       y       z     vdW  Elec       q    Type
REMARK                         _______ _______ _______ _____ _____    ______ ____
ROOT
ATOM      1  N   UNL     1      -4.511  -3.225   2.177  0.00  0.00    +0.000 NA
ENDROOT
BRANCH   1   3
ATOM      2  C   UNL     1      -2.620  -2.916   3.785  0.00  0.00    +0.000 C 
ATOM      3  C   UNL     1      -3.652  -3.867   3.182  0.00  0.00    +0.000 C 
ENDBRANCH   1   3
BRANCH   1   4
ATOM      4  C   UNL     1      -4.633  -1.767   2.335  0.00  0.00    +0.000 C 
ATOM      5  C   UNL     1      -5.962  -1.243   2.876  0.00  0.00    +0.000 C 
ENDBRANCH   1   4
BRANCH   1   6
ATOM      6  C   UNL     1      -4.132  -3.584   0.800  0.00  0.00    +0.000 C 
ATOM      7  C   UNL     1      -3.572  -4.999   0.682  0.00  0.00    +0.000 C 
ENDBRANCH   1   6
TORSDOF 3
ENDMDL
MODEL 2
REMARK VINA RESULT:    -2.939      0.097      3.212
REMARK INTER + INTRA:          -3.610
REMARK INTER:                  -3.454
REMARK INTRA:                  -0.156
REMARK UNBOUND:                -0.156
REMARK  Name = C:\DDRIVE\PROJECT\rmpr\authml\backend\results\ligand_1764487019612.pdb
REMARK  6 active torsions:
REMARK  status: ('A' for Active; 'I' for Inactive)
REMARK    1  A    between atoms: C_1  and  C_2
REMARK    2  A    between atoms: C_2  and  N_3
REMARK    3  A    between atoms: N_3  and  C_4
REMARK    4  A    between atoms: N_3  and  C_6
REMARK    5  A    between atoms: C_4  and  C_5
REMARK    6  A    between atoms: C_6  and  C_7
REMARK                            x       y       z     vdW  Elec       q    Type
REMARK                         _______ _______ _______ _____ _____    ______ ____
ROOT
ATOM      1  N   UNL     1      -4.561  -3.197   2.213  0.00  0.00    +0.000 NA
ENDROOT
BRANCH   1   3
ATOM      2  C   UNL     1      -3.594  -4.919   0.677  0.00  0.00    +0.000 C 
ATOM      3  C   UNL     1      -4.272  -3.557   0.818  0.00  0.00    +0.000 C 
ENDBRANCH   1   3
BRANCH   1   4
ATOM      4  C   UNL     1      -3.645  -3.805   3.193  0.00  0.00    +0.000 C 
ATOM      5  C   UNL     1      -2.594  -2.886   3.812  0.00  0.00    +0.000 C 
ENDBRANCH   1   4
BRANCH   1   6
ATOM      6  C   UNL     1      -4.663  -1.741   2.410  0.00  0.00    +0.000 C 
ATOM      7  C   UNL     1      -6.070  -1.286   2.792  0.00  0.00    +0.000 C 
ENDBRANCH   1   6
TORSDOF 3
ENDMDL
MODEL 3
REMARK VINA RESULT:    -2.928      0.108      3.206
REMARK INTER + INTRA:          -3.598
REMARK INTER:                  -3.444
REMARK INTRA:                  -0.154
REMARK UNBOUND:                -0.156
REMARK  Name = C:\DDRIVE\PROJECT\rmpr\authml\backend\results\ligand_1764487019612.pdb
REMARK  6 active torsions:
REMARK  status: ('A' for Active; 'I' for Inactive)
REMARK    1  A    between atoms: C_1  and  C_2
REMARK    2  A    between atoms: C_2  and  N_3
REMARK    3  A    between atoms: N_3  and  C_4
REMARK    4  A    between atoms: N_3  and  C_6
REMARK    5  A    between atoms: C_4  and  C_5
REMARK    6  A    between atoms: C_6  and  C_7
REMARK                            x       y       z     vdW  Elec       q    Type
REMARK                         _______ _______ _______ _____ _____    ______ ____
ROOT
ATOM      1  N   UNL     1      -4.505  -3.244   2.135  0.00  0.00    +0.000 NA
ENDROOT
BRANCH   1   3
ATOM      2  C   UNL     1      -5.954  -1.334   2.848  0.00  0.00    +0.000 C 
ATOM      3  C   UNL     1      -4.584  -1.793   2.353  0.00  0.00    +0.000 C 
ENDBRANCH   1   3
BRANCH   1   4
ATOM      4  C   UNL     1      -4.231  -3.627   0.739  0.00  0.00    +0.000 C 
ATOM      5  C   UNL     1      -3.583  -4.992   0.517  0.00  0.00    +0.000 C 
ENDBRANCH   1   4
BRANCH   1   6
ATOM      6  C   UNL     1      -3.570  -3.904   3.062  0.00  0.00    +0.000 C 
ATOM      7  C   UNL     1      -2.623  -2.926   3.753  0.00  0.00    +0.000 C 
ENDBRANCH   1   6
TORSDOF 3
ENDMDL
MODEL 4
REMARK VINA RESULT:    -2.893      0.599      2.501
REMARK INTER + INTRA:          -3.556
REMARK INTER:                  -3.400
REMARK INTRA:                  -0.156
REMARK UNBOUND:                -0.156
REMARK  Name = C:\DDRIVE\PROJECT\rmpr\authml\backend\results\ligand_1764487019612.pdb
REMARK  6 active torsions:
REMARK  status: ('A' for Active; 'I' for Inactive)
REMARK    1  A    between atoms: C_1  and  C_2
REMARK    2  A    between atoms: C_2  and  N_3
REMARK    3  A    between atoms: N_3  and  C_4
REMARK    4  A    between atoms: N_3  and  C_6
REMARK    5  A    between atoms: C_4  and  C_5
REMARK    6  A    between atoms: C_6  and  C_7
REMARK                            x       y       z     vdW  Elec       q    Type
REMARK                         _______ _______ _______ _____ _____    ______ ____
ROOT
ATOM      1  N   UNL     1      -4.221  -3.121   2.067  0.00  0.00    +0.000 NA
ENDROOT
BRANCH   1   3
ATOM      2  C   UNL     1      -3.438  -5.263   1.038  0.00  0.00    +0.000 C 
ATOM      3  C   UNL     1      -4.075  -3.891   0.823  0.00  0.00    +0.000 C 
ENDBRANCH   1   3
BRANCH   1   4
ATOM      4  C   UNL     1      -5.614  -2.790   2.409  0.00  0.00    +0.000 C 
ATOM      5  C   UNL     1      -5.895  -1.348   2.825  0.00  0.00    +0.000 C 
ENDBRANCH   1   4
BRANCH   1   6
ATOM      6  C   UNL     1      -3.528  -3.750   3.204  0.00  0.00    +0.000 C 
ATOM      7  C   UNL     1      -2.508  -2.827   3.868  0.00  0.00    +0.000 C 
ENDBRANCH   1   6
TORSDOF 3
ENDMDL
MODEL 5
REMARK VINA RESULT:    -2.888      0.581      2.966
REMARK INTER + INTRA:          -3.550
REMARK INTER:                  -3.400
REMARK INTRA:                  -0.151
REMARK UNBOUND:                -0.156
REMARK  Name = C:\DDRIVE\PROJECT\rmpr\authml\backend\results\ligand_1764487019612.pdb
REMARK  6 active torsions:
REMARK  status: ('A' for Active; 'I' for Inactive)
REMARK    1  A    between atoms: C_1  and  C_2
REMARK    2  A    between atoms: C_2  and  N_3
REMARK    3  A    between atoms: N_3  and  C_4
REMARK    4  A    between atoms: N_3  and  C_6
REMARK    5  A    between atoms: C_4  and  C_5
REMARK    6  A    between atoms: C_6  and  C_7
REMARK                            x       y       z     vdW  Elec       q    Type
REMARK                         _______ _______ _______ _____ _____    ______ ____
ROOT
ATOM      1  N   UNL     1      -4.266  -3.093   2.009  0.00  0.00    +0.000 NA
ENDROOT
BRANCH   1   3
ATOM      2  C   UNL     1      -2.563  -2.875   3.829  0.00  0.00    +0.000 C 
ATOM      3  C   UNL     1      -3.521  -3.790   3.067  0.00  0.00    +0.000 C 
ENDBRANCH   1   3
BRANCH   1   4
ATOM      4  C   UNL     1      -4.204  -3.755   0.695  0.00  0.00    +0.000 C 
ATOM      5  C   UNL     1      -3.522  -5.120   0.646  0.00  0.00    +0.000 C 
ENDBRANCH   1   4
BRANCH   1   6
ATOM      6  C   UNL     1      -5.657  -2.804   2.396  0.00  0.00    +0.000 C 
ATOM      7  C   UNL     1      -5.867  -1.359   2.840  0.00  0.00    +0.000 C 
ENDBRANCH   1   6
TORSDOF 3
ENDMDL
MODEL 6
REMARK VINA RESULT:    -2.833      0.657      2.405
REMARK INTER + INTRA:          -3.485
REMARK INTER:                  -3.349
REMARK INTRA:                  -0.136
REMARK UNBOUND:                -0.156
REMARK  Name = C:\DDRIVE\PROJECT\rmpr\authml\backend\results\ligand_1764487019612.pdb
REMARK  6 active torsions:
REMARK  status: ('A' for Active; 'I' for Inactive)
REMARK    1  A    between atoms: C_1  and  C_2
REMARK    2  A    between atoms: C_2  and  N_3
REMARK    3  A    between atoms: N_3  and  C_4
REMARK    4  A    between atoms: N_3  and  C_6
REMARK    5  A    between atoms: C_4  and  C_5
REMARK    6  A    between atoms: C_6  and  C_7
REMARK                            x       y       z     vdW  Elec       q    Type
REMARK                         _______ _______ _______ _____ _____    ______ ____
ROOT
ATOM      1  N   UNL     1      -4.182  -3.163   1.880  0.00  0.00    +0.000 NA
ENDROOT
BRANCH   1   3
ATOM      2  C   UNL     1      -5.815  -1.517   2.820  0.00  0.00    +0.000 C 
ATOM      3  C   UNL     1      -5.601  -2.840   2.085  0.00  0.00    +0.000 C 
ENDBRANCH   1   3
BRANCH   1   4
ATOM      4  C   UNL     1      -3.519  -3.734   3.065  0.00  0.00    +0.000 C 
ATOM      5  C   UNL     1      -2.553  -2.821   3.817  0.00  0.00    +0.000 C 
ENDBRANCH   1   4
BRANCH   1   6
ATOM      6  C   UNL     1      -3.961  -4.001   0.690  0.00  0.00    +0.000 C 
ATOM      7  C   UNL     1      -3.453  -5.400   1.029  0.00  0.00    +0.000 C 
ENDBRANCH   1   6
TORSDOF 3
ENDMDL
MODEL 7
REMARK VINA RESULT:    -2.744      1.446      2.725
REMARK INTER + INTRA:          -3.381
REMARK INTER:                  -3.254
REMARK INTRA:                  -0.127
REMARK UNBOUND:                -0.156
REMARK  Name = C:\DDRIVE\PROJECT\rmpr\authml\backend\results\ligand_1764487019612.pdb
REMARK  6 active torsions:
REMARK  status: ('A' for Active; 'I' for Inactive)
REMARK    1  A    between atoms: C_1  and  C_2
REMARK    2  A    between atoms: C_2  and  N_3
REMARK    3  A    between atoms: N_3  and  C_4
REMARK    4  A    between atoms: N_3  and  C_6
REMARK    5  A    between atoms: C_4  and  C_5
REMARK    6  A    between atoms: C_6  and  C_7
REMARK                            x       y       z     vdW  Elec       q    Type
REMARK                         _______ _______ _______ _____ _____    ______ ____
ROOT
ATOM      1  N   UNL     1      -3.615  -4.210   1.474  0.00  0.00    +0.000 NA
ENDROOT
BRANCH   1   3
ATOM      2  C   UNL     1      -4.764  -2.171   0.591  0.00  0.00    +0.000 C 
ATOM      3  C   UNL     1      -4.482  -3.663   0.421  0.00  0.00    +0.000 C 
ENDBRANCH   1   3
BRANCH   1   4
ATOM      4  C   UNL     1      -3.920  -3.707   2.824  0.00  0.00    +0.000 C 
ATOM      5  C   UNL     1      -2.764  -3.079   3.601  0.00  0.00    +0.000 C 
ENDBRANCH   1   4
BRANCH   1   6
ATOM      6  C   UNL     1      -3.561  -5.681   1.452  0.00  0.00    +0.000 C 
ATOM      7  C   UNL     1      -2.908  -6.237   0.189  0.00  0.00    +0.000 C 
ENDBRANCH   1   6
TORSDOF 3
ENDMDL
MODEL 8
REMARK VINA RESULT:    -2.638      1.640      3.002
REMARK INTER + INTRA:          -3.257
REMARK INTER:                  -3.115
REMARK INTRA:                  -0.142
REMARK UNBOUND:                -0.156
REMARK  Name = C:\DDRIVE\PROJECT\rmpr\authml\backend\results\ligand_1764487019612.pdb
REMARK  6 active torsions:
REMARK  status: ('A' for Active; 'I' for Inactive)
REMARK    1  A    between atoms: C_1  and  C_2
REMARK    2  A    between atoms: C_2  and  N_3
REMARK    3  A    between atoms: N_3  and  C_4
REMARK    4  A    between atoms: N_3  and  C_6
REMARK    5  A    between atoms: C_4  and  C_5
REMARK    6  A    between atoms: C_6  and  C_7
REMARK                            x       y       z     vdW  Elec       q    Type
REMARK                         _______ _______ _______ _____ _____    ______ ____
ROOT
ATOM      1  N   UNL     1      -4.888  -3.226   3.002  0.00  0.00    +0.000 NA
ENDROOT
BRANCH   1   3
ATOM      2  C   UNL     1      -4.954  -1.551   1.145  0.00  0.00    +0.000 C 
ATOM      3  C   UNL     1      -5.008  -1.804   2.651  0.00  0.00    +0.000 C 
ENDBRANCH   1   3
BRANCH   1   4
ATOM      4  C   UNL     1      -5.765  -4.114   2.221  0.00  0.00    +0.000 C 
ATOM      5  C   UNL     1      -6.820  -4.896   3.001  0.00  0.00    +0.000 C 
ENDBRANCH   1   4
BRANCH   1   6
ATOM      6  C   UNL     1      -3.493  -3.697   2.976  0.00  0.00    +0.000 C 
ATOM      7  C   UNL     1      -2.553  -2.830   3.811  0.00  0.00    +0.000 C 
ENDBRANCH   1   6
TORSDOF 3
ENDMDL
MODEL 9
REMARK VINA RESULT:    -2.455     14.224     15.187
REMARK INTER + INTRA:          -3.042
REMARK INTER:                  -2.880
REMARK INTRA:                  -0.162
REMARK UNBOUND:                -0.156
REMARK  Name = C:\DDRIVE\PROJECT\rmpr\authml\backend\results\ligand_1764487019612.pdb
REMARK  6 active torsions:
REMARK  status: ('A' for Active; 'I' for Inactive)
REMARK    1  A    between atoms: C_1  and  C_2
REMARK    2  A    between atoms: C_2  and  N_3
REMARK    3  A    between atoms: N_3  and  C_4
REMARK    4  A    between atoms: N_3  and  C_6
REMARK    5  A    between atoms: C_4  and  C_5
REMARK    6  A    between atoms: C_6  and  C_7
REMARK                            x       y       z     vdW  Elec       q    Type
REMARK                         _______ _______ _______ _____ _____    ______ ____
ROOT
ATOM      1  N   UNL     1      10.130  -4.356  -1.877  0.00  0.00    +0.000 NA
ENDROOT
BRANCH   1   3
ATOM      2  C   UNL     1       9.864  -1.934  -1.308  0.00  0.00    +0.000 C 
ATOM      3  C   UNL     1      10.011  -3.366  -0.797  0.00  0.00    +0.000 C 
ENDBRANCH   1   3
BRANCH   1   4
ATOM      4  C   UNL     1       8.885  -5.090  -2.159  0.00  0.00    +0.000 C 
ATOM      5  C   UNL     1       8.905  -6.045  -3.351  0.00  0.00    +0.000 C 
ENDBRANCH   1   4
BRANCH   1   6
ATOM      6  C   UNL     1      10.700  -3.782  -3.107  0.00  0.00    +0.000 C 
ATOM      7  C   UNL     1      12.186  -4.090  -3.278  0.00  0.00    +0.000 C 
ENDBRANCH   1   6
TORSDOF 3
ENDMDL
