MODEL 1
REMARK VINA RESULT:    -2.953      0.000      0.000
REMARK INTER + INTRA:          -3.631
REMARK INTER:                  -3.471
REMARK INTRA:                  -0.160
REMARK UNBOUND:                -0.160
REMARK  Name = results/64c1af30-c890-4307-aa87-7e6d8d1a768a_ligand.pdb
REMARK  6 active torsions:
REMARK  status: ('A' for Active; 'I' for Inactive)
REMARK    1  A    between atoms: C1_1  and  C2_2
REMARK    2  A    between atoms: C2_2  and  N1_3
REMARK    3  A    between atoms: N1_3  and  C3_4
REMARK    4  A    between atoms: N1_3  and  C5_6
REMARK    5  A    between atoms: C3_4  and  C4_5
REMARK    6  A    between atoms: C5_6  and  C6_7
REMARK                            x       y       z     vdW  Elec       q    Type
REMARK                         _______ _______ _______ _____ _____    ______ ____
ROOT
ATOM      1  N1  UNL     1      -4.552  -3.224   2.235  0.00  0.00    +0.000 NA
ENDROOT
BRANCH   1   3
ATOM      2  C1  UNL     1      -3.607  -4.941   0.750  0.00  0.00    +0.000 C 
ATOM      3  C2  UNL     1      -4.249  -3.561   0.819  0.00  0.00    +0.000 C 
ENDBRANCH   1   3
BRANCH   1   4
ATOM      4  C3  UNL     1      -4.553  -1.761   2.464  0.00  0.00    +0.000 C 
ATOM      5  C4  UNL     1      -5.941  -1.270   2.878  0.00  0.00    +0.000 C 
ENDBRANCH   1   4
BRANCH   1   6
ATOM      6  C5  UNL     1      -3.620  -3.894   3.171  0.00  0.00    +0.000 C 
ATOM      7  C6  UNL     1      -2.625  -2.896   3.761  0.00  0.00    +0.000 C 
ENDBRANCH   1   6
TORSDOF 3
ENDMDL
MODEL 2
REMARK VINA RESULT:    -2.932      0.097      3.196
REMARK INTER + INTRA:          -3.606
REMARK INTER:                  -3.448
REMARK INTRA:                  -0.158
REMARK UNBOUND:                -0.160
REMARK  Name = results/64c1af30-c890-4307-aa87-7e6d8d1a768a_ligand.pdb
REMARK  6 active torsions:
REMARK  status: ('A' for Active; 'I' for Inactive)
REMARK    1  A    between atoms: C1_1  and  C2_2
REMARK    2  A    between atoms: C2_2  and  N1_3
REMARK    3  A    between atoms: N1_3  and  C3_4
REMARK    4  A    between atoms: N1_3  and  C5_6
REMARK    5  A    between atoms: C3_4  and  C4_5
REMARK    6  A    between atoms: C5_6  and  C6_7
REMARK                            x       y       z     vdW  Elec       q    Type
REMARK                         _______ _______ _______ _____ _____    ______ ____
ROOT
ATOM      1  N1  UNL     1      -4.552  -3.259   2.288  0.00  0.00    +0.000 NA
ENDROOT
BRANCH   1   3
ATOM      2  C1  UNL     1      -2.632  -2.889   3.779  0.00  0.00    +0.000 C 
ATOM      3  C2  UNL     1      -3.661  -3.901   3.290  0.00  0.00    +0.000 C 
ENDBRANCH   1   3
BRANCH   1   4
ATOM      4  C3  UNL     1      -4.171  -3.617   0.903  0.00  0.00    +0.000 C 
ATOM      5  C4  UNL     1      -3.573  -5.024   0.843  0.00  0.00    +0.000 C 
ENDBRANCH   1   4
BRANCH   1   6
ATOM      6  C5  UNL     1      -4.590  -1.787   2.450  0.00  0.00    +0.000 C 
ATOM      7  C6  UNL     1      -5.999  -1.310   2.801  0.00  0.00    +0.000 C 
ENDBRANCH   1   6
TORSDOF 3
ENDMDL
MODEL 3
REMARK VINA RESULT:    -2.918      0.609      2.391
REMARK INTER + INTRA:          -3.590
REMARK INTER:                  -3.436
REMARK INTRA:                  -0.154
REMARK UNBOUND:                -0.160
REMARK  Name = results/64c1af30-c890-4307-aa87-7e6d8d1a768a_ligand.pdb
REMARK  6 active torsions:
REMARK  status: ('A' for Active; 'I' for Inactive)
REMARK    1  A    between atoms: C1_1  and  C2_2
REMARK    2  A    between atoms: C2_2  and  N1_3
REMARK    3  A    between atoms: N1_3  and  C3_4
REMARK    4  A    between atoms: N1_3  and  C5_6
REMARK    5  A    between atoms: C3_4  and  C4_5
REMARK    6  A    between atoms: C5_6  and  C6_7
REMARK                            x       y       z     vdW  Elec       q    Type
REMARK                         _______ _______ _______ _____ _____    ______ ____
ROOT
ATOM      1  N1  UNL     1      -4.263  -3.055   2.009  0.00  0.00    +0.000 NA
ENDROOT
BRANCH   1   3
ATOM      2  C1  UNL     1      -3.500  -5.114   0.901  0.00  0.00    +0.000 C 
ATOM      3  C2  UNL     1      -4.202  -3.775   0.709  0.00  0.00    +0.000 C 
ENDBRANCH   1   3
BRANCH   1   4
ATOM      4  C3  UNL     1      -3.548  -3.788   3.078  0.00  0.00    +0.000 C 
ATOM      5  C4  UNL     1      -2.564  -2.874   3.808  0.00  0.00    +0.000 C 
ENDBRANCH   1   4
BRANCH   1   6
ATOM      6  C5  UNL     1      -5.659  -2.777   2.417  0.00  0.00    +0.000 C 
ATOM      7  C6  UNL     1      -5.817  -1.327   2.876  0.00  0.00    +0.000 C 
ENDBRANCH   1   6
TORSDOF 3
ENDMDL
MODEL 4
REMARK VINA RESULT:    -2.899      0.291      3.230
REMARK INTER + INTRA:          -3.568
REMARK INTER:                  -3.409
REMARK INTRA:                  -0.159
REMARK UNBOUND:                -0.160
REMARK  Name = results/64c1af30-c890-4307-aa87-7e6d8d1a768a_ligand.pdb
REMARK  6 active torsions:
REMARK  status: ('A' for Active; 'I' for Inactive)
REMARK    1  A    between atoms: C1_1  and  C2_2
REMARK    2  A    between atoms: C2_2  and  N1_3
REMARK    3  A    between atoms: N1_3  and  C3_4
REMARK    4  A    between atoms: N1_3  and  C5_6
REMARK    5  A    between atoms: C3_4  and  C4_5
REMARK    6  A    between atoms: C5_6  and  C6_7
REMARK                            x       y       z     vdW  Elec       q    Type
REMARK                         _______ _______ _______ _____ _____    ______ ____
ROOT
ATOM      1  N1  UNL     1      -4.505  -3.186   2.127  0.00  0.00    +0.000 NA
ENDROOT
BRANCH   1   3
ATOM      2  C1  UNL     1      -5.974  -1.328   2.786  0.00  0.00    +0.000 C 
ATOM      3  C2  UNL     1      -4.543  -1.738   2.461  0.00  0.00    +0.000 C 
ENDBRANCH   1   3
BRANCH   1   4
ATOM      4  C3  UNL     1      -3.369  -3.873   2.783  0.00  0.00    +0.000 C 
ATOM      5  C4  UNL     1      -2.626  -2.927   3.727  0.00  0.00    +0.000 C 
ENDBRANCH   1   4
BRANCH   1   6
ATOM      6  C5  UNL     1      -4.471  -3.411   0.663  0.00  0.00    +0.000 C 
ATOM      7  C6  UNL     1      -3.766  -4.725   0.327  0.00  0.00    +0.000 C 
ENDBRANCH   1   6
TORSDOF 3
ENDMDL
MODEL 5
REMARK VINA RESULT:    -2.897      0.623      2.931
REMARK INTER + INTRA:          -3.565
REMARK INTER:                  -3.414
REMARK INTRA:                  -0.151
REMARK UNBOUND:                -0.160
REMARK  Name = results/64c1af30-c890-4307-aa87-7e6d8d1a768a_ligand.pdb
REMARK  6 active torsions:
REMARK  status: ('A' for Active; 'I' for Inactive)
REMARK    1  A    between atoms: C1_1  and  C2_2
REMARK    2  A    between atoms: C2_2  and  N1_3
REMARK    3  A    between atoms: N1_3  and  C3_4
REMARK    4  A    between atoms: N1_3  and  C5_6
REMARK    5  A    between atoms: C3_4  and  C4_5
REMARK    6  A    between atoms: C5_6  and  C6_7
REMARK                            x       y       z     vdW  Elec       q    Type
REMARK                         _______ _______ _______ _____ _____    ______ ____
ROOT
ATOM      1  N1  UNL     1      -4.304  -3.095   2.015  0.00  0.00    +0.000 NA
ENDROOT
BRANCH   1   3
ATOM      2  C1  UNL     1      -5.808  -1.344   2.862  0.00  0.00    +0.000 C 
ATOM      3  C2  UNL     1      -5.693  -2.809   2.461  0.00  0.00    +0.000 C 
ENDBRANCH   1   3
BRANCH   1   4
ATOM      4  C3  UNL     1      -4.279  -3.829   0.729  0.00  0.00    +0.000 C 
ATOM      5  C4  UNL     1      -3.472  -5.122   0.850  0.00  0.00    +0.000 C 
ENDBRANCH   1   4
BRANCH   1   6
ATOM      6  C5  UNL     1      -3.536  -3.831   3.046  0.00  0.00    +0.000 C 
ATOM      7  C6  UNL     1      -2.574  -2.900   3.782  0.00  0.00    +0.000 C 
ENDBRANCH   1   6
TORSDOF 3
ENDMDL
MODEL 6
REMARK VINA RESULT:    -2.896      0.627      2.471
REMARK INTER + INTRA:          -3.563
REMARK INTER:                  -3.407
REMARK INTRA:                  -0.156
REMARK UNBOUND:                -0.160
REMARK  Name = results/64c1af30-c890-4307-aa87-7e6d8d1a768a_ligand.pdb
REMARK  6 active torsions:
REMARK  status: ('A' for Active; 'I' for Inactive)
REMARK    1  A    between atoms: C1_1  and  C2_2
REMARK    2  A    between atoms: C2_2  and  N1_3
REMARK    3  A    between atoms: N1_3  and  C3_4
REMARK    4  A    between atoms: N1_3  and  C5_6
REMARK    5  A    between atoms: C3_4  and  C4_5
REMARK    6  A    between atoms: C5_6  and  C6_7
REMARK                            x       y       z     vdW  Elec       q    Type
REMARK                         _______ _______ _______ _____ _____    ______ ____
ROOT
ATOM      1  N1  UNL     1      -4.268  -3.043   2.095  0.00  0.00    +0.000 NA
ENDROOT
BRANCH   1   3
ATOM      2  C1  UNL     1      -2.550  -2.850   3.844  0.00  0.00    +0.000 C 
ATOM      3  C2  UNL     1      -3.610  -3.752   3.224  0.00  0.00    +0.000 C 
ENDBRANCH   1   3
BRANCH   1   4
ATOM      4  C3  UNL     1      -5.698  -2.777   2.372  0.00  0.00    +0.000 C 
ATOM      5  C4  UNL     1      -5.908  -1.336   2.838  0.00  0.00    +0.000 C 
ENDBRANCH   1   4
BRANCH   1   6
ATOM      6  C5  UNL     1      -4.116  -3.781   0.820  0.00  0.00    +0.000 C 
ATOM      7  C6  UNL     1      -3.489  -5.155   1.053  0.00  0.00    +0.000 C 
ENDBRANCH   1   6
TORSDOF 3
ENDMDL
MODEL 7
REMARK VINA RESULT:    -2.760      1.532      3.102
REMARK INTER + INTRA:          -3.404
REMARK INTER:                  -3.259
REMARK INTRA:                  -0.145
REMARK UNBOUND:                -0.160
REMARK  Name = results/64c1af30-c890-4307-aa87-7e6d8d1a768a_ligand.pdb
REMARK  6 active torsions:
REMARK  status: ('A' for Active; 'I' for Inactive)
REMARK    1  A    between atoms: C1_1  and  C2_2
REMARK    2  A    between atoms: C2_2  and  N1_3
REMARK    3  A    between atoms: N1_3  and  C3_4
REMARK    4  A    between atoms: N1_3  and  C5_6
REMARK    5  A    between atoms: C3_4  and  C4_5
REMARK    6  A    between atoms: C5_6  and  C6_7
REMARK                            x       y       z     vdW  Elec       q    Type
REMARK                         _______ _______ _______ _____ _____    ______ ____
ROOT
ATOM      1  N1  UNL     1      -3.832  -4.637   2.144  0.00  0.00    +0.000 NA
ENDROOT
BRANCH   1   3
ATOM      2  C1  UNL     1      -6.113  -4.680   3.060  0.00  0.00    +0.000 C 
ATOM      3  C2  UNL     1      -4.954  -5.525   2.545  0.00  0.00    +0.000 C 
ENDBRANCH   1   3
BRANCH   1   4
ATOM      4  C3  UNL     1      -3.929  -3.304   2.782  0.00  0.00    +0.000 C 
ATOM      5  C4  UNL     1      -2.723  -3.038   3.684  0.00  0.00    +0.000 C 
ENDBRANCH   1   4
BRANCH   1   6
ATOM      6  C5  UNL     1      -3.739  -4.500   0.672  0.00  0.00    +0.000 C 
ATOM      7  C6  UNL     1      -3.114  -5.745   0.043  0.00  0.00    +0.000 C 
ENDBRANCH   1   6
TORSDOF 3
ENDMDL
MODEL 8
REMARK VINA RESULT:    -2.754      1.614      2.251
REMARK INTER + INTRA:          -3.397
REMARK INTER:                  -3.254
REMARK INTRA:                  -0.143
REMARK UNBOUND:                -0.160
REMARK  Name = results/64c1af30-c890-4307-aa87-7e6d8d1a768a_ligand.pdb
REMARK  6 active torsions:
REMARK  status: ('A' for Active; 'I' for Inactive)
REMARK    1  A    between atoms: C1_1  and  C2_2
REMARK    2  A    between atoms: C2_2  and  N1_3
REMARK    3  A    between atoms: N1_3  and  C3_4
REMARK    4  A    between atoms: N1_3  and  C5_6
REMARK    5  A    between atoms: C3_4  and  C4_5
REMARK    6  A    between atoms: C5_6  and  C6_7
REMARK                            x       y       z     vdW  Elec       q    Type
REMARK                         _______ _______ _______ _____ _____    ______ ____
ROOT
ATOM      1  N1  UNL     1      -3.806  -4.829   2.151  0.00  0.00    +0.000 NA
ENDROOT
BRANCH   1   3
ATOM      2  C1  UNL     1      -2.864  -6.119   0.281  0.00  0.00    +0.000 C 
ATOM      3  C2  UNL     1      -3.509  -4.802   0.695  0.00  0.00    +0.000 C 
ENDBRANCH   1   3
BRANCH   1   4
ATOM      4  C3  UNL     1      -5.013  -5.631   2.452  0.00  0.00    +0.000 C 
ATOM      5  C4  UNL     1      -6.108  -4.764   3.075  0.00  0.00    +0.000 C 
ENDBRANCH   1   4
BRANCH   1   6
ATOM      6  C5  UNL     1      -3.938  -3.464   2.710  0.00  0.00    +0.000 C 
ATOM      7  C6  UNL     1      -2.729  -3.104   3.572  0.00  0.00    +0.000 C 
ENDBRANCH   1   6
TORSDOF 3
ENDMDL
MODEL 9
REMARK VINA RESULT:    -2.364     14.437     15.377
REMARK INTER + INTRA:          -2.938
REMARK INTER:                  -2.782
REMARK INTRA:                  -0.157
REMARK UNBOUND:                -0.160
REMARK  Name = results/64c1af30-c890-4307-aa87-7e6d8d1a768a_ligand.pdb
REMARK  6 active torsions:
REMARK  status: ('A' for Active; 'I' for Inactive)
REMARK    1  A    between atoms: C1_1  and  C2_2
REMARK    2  A    between atoms: C2_2  and  N1_3
REMARK    3  A    between atoms: N1_3  and  C3_4
REMARK    4  A    between atoms: N1_3  and  C5_6
REMARK    5  A    between atoms: C3_4  and  C4_5
REMARK    6  A    between atoms: C5_6  and  C6_7
REMARK                            x       y       z     vdW  Elec       q    Type
REMARK                         _______ _______ _______ _____ _____    ______ ____
ROOT
ATOM      1  N1  UNL     1      10.301  -2.978  -2.063  0.00  0.00    +0.000 NA
ENDROOT
BRANCH   1   3
ATOM      2  C1  UNL     1       8.701  -4.822  -1.769  0.00  0.00    +0.000 C 
ATOM      3  C2  UNL     1      10.147  -4.378  -1.588  0.00  0.00    +0.000 C 
ENDBRANCH   1   3
BRANCH   1   4
ATOM      4  C3  UNL     1      11.525  -2.805  -2.879  0.00  0.00    +0.000 C 
ATOM      5  C4  UNL     1      12.122  -4.157  -3.268  0.00  0.00    +0.000 C 
ENDBRANCH   1   4
BRANCH   1   6
ATOM      6  C5  UNL     1      10.286  -2.013  -0.940  0.00  0.00    +0.000 C 
ATOM      7  C6  UNL     1       9.272  -0.896  -1.190  0.00  0.00    +0.000 C 
ENDBRANCH   1   6
TORSDOF 3
ENDMDL
