MODEL 1
REMARK VINA RESULT:    -4.211      0.000      0.000
REMARK INTER + INTRA:          -5.723
REMARK INTER:                  -5.072
REMARK INTRA:                  -0.651
REMARK UNBOUND:                -0.651
REMARK  Name = results/c63330de-fdea-433d-b1fe-612e20954cd7_ligand.pdb
REMARK  5 active torsions:
REMARK  status: ('A' for Active; 'I' for Inactive)
REMARK    1  A    between atoms: C1_1  and  C2_2
REMARK    2  A    between atoms: C2_2  and  O2_4
REMARK    3  A    between atoms: O2_4  and  C3_5
REMARK    4  A    between atoms: C8_10  and  C9_11
REMARK    5  A    between atoms: C9_11  and  O4_13
REMARK                            x       y       z     vdW  Elec       q    Type
REMARK                         _______ _______ _______ _____ _____    ______ ____
ROOT
ATOM      1  C3  UNL     1      10.015  -3.955  -1.078  0.00  0.00    +0.000 A 
ATOM      2  C4  UNL     1       9.192  -4.775  -0.282  0.00  0.00    +0.000 A 
ATOM      3  C5  UNL     1       8.632  -5.940  -0.805  0.00  0.00    +0.000 A 
ATOM      4  C6  UNL     1       8.874  -6.299  -2.129  0.00  0.00    +0.000 A 
ATOM      5  C7  UNL     1       9.671  -5.488  -2.939  0.00  0.00    +0.000 A 
ATOM      6  C8  UNL     1      10.246  -4.307  -2.432  0.00  0.00    +0.000 A 
ENDROOT
BRANCH   6   7
ATOM      7  C9  UNL     1      11.088  -3.472  -3.330  0.00  0.00    +0.000 C 
ATOM      8  O3  UNL     1      12.253  -3.833  -3.648  0.00  0.00    +0.000 OA
BRANCH   7   9
ATOM      9  O4  UNL     1      10.592  -2.273  -3.836  0.00  0.00    +0.000 OA
ATOM     10  H8  UNL     1      11.203  -1.609  -4.295  0.00  0.00    +0.000 HD
ENDBRANCH   7   9
ENDBRANCH   6   7
BRANCH   1  11
ATOM     11  O2  UNL     1      10.570  -2.772  -0.560  0.00  0.00    +0.000 OA
BRANCH  11  13
ATOM     12  C1  UNL     1       9.675  -1.013   0.966  0.00  0.00    +0.000 C 
ATOM     13  C2  UNL     1       9.890  -1.558  -0.405  0.00  0.00    +0.000 C 
ATOM     14  O1  UNL     1       9.373  -0.972  -1.395  0.00  0.00    +0.000 OA
ENDBRANCH  11  13
ENDBRANCH   1  11
TORSDOF 4
ENDMDL
MODEL 2
REMARK VINA RESULT:    -4.187     13.854     14.852
REMARK INTER + INTRA:          -5.695
REMARK INTER:                  -5.149
REMARK INTRA:                  -0.546
REMARK UNBOUND:                -0.651
REMARK  Name = results/c63330de-fdea-433d-b1fe-612e20954cd7_ligand.pdb
REMARK  5 active torsions:
REMARK  status: ('A' for Active; 'I' for Inactive)
REMARK    1  A    between atoms: C1_1  and  C2_2
REMARK    2  A    between atoms: C2_2  and  O2_4
REMARK    3  A    between atoms: O2_4  and  C3_5
REMARK    4  A    between atoms: C8_10  and  C9_11
REMARK    5  A    between atoms: C9_11  and  O4_13
REMARK                            x       y       z     vdW  Elec       q    Type
REMARK                         _______ _______ _______ _____ _____    ______ ____
ROOT
ATOM      1  C3  UNL     1      -4.556  -3.935   0.666  0.00  0.00    +0.000 A 
ATOM      2  C4  UNL     1      -4.902  -2.583   0.855  0.00  0.00    +0.000 A 
ATOM      3  C5  UNL     1      -4.535  -1.912   2.023  0.00  0.00    +0.000 A 
ATOM      4  C6  UNL     1      -3.831  -2.581   3.020  0.00  0.00    +0.000 A 
ATOM      5  C7  UNL     1      -3.497  -3.927   2.859  0.00  0.00    +0.000 A 
ATOM      6  C8  UNL     1      -3.857  -4.623   1.689  0.00  0.00    +0.000 A 
ENDROOT
BRANCH   6   7
ATOM      7  C9  UNL     1      -3.482  -6.057   1.560  0.00  0.00    +0.000 C 
ATOM      8  O3  UNL     1      -4.202  -6.963   2.058  0.00  0.00    +0.000 OA
BRANCH   7   9
ATOM      9  O4  UNL     1      -2.320  -6.416   0.882  0.00  0.00    +0.000 OA
ATOM     10  H8  UNL     1      -1.500  -6.734   1.385  0.00  0.00    +0.000 HD
ENDBRANCH   7   9
ENDBRANCH   6   7
BRANCH   1  11
ATOM     11  O2  UNL     1      -4.935  -4.618  -0.502  0.00  0.00    +0.000 OA
BRANCH  11  13
ATOM     12  C1  UNL     1      -4.661  -3.843  -2.857  0.00  0.00    +0.000 C 
ATOM     13  C2  UNL     1      -4.201  -4.654  -1.694  0.00  0.00    +0.000 C 
ATOM     14  O1  UNL     1      -3.219  -5.434  -1.830  0.00  0.00    +0.000 OA
ENDBRANCH  11  13
ENDBRANCH   1  11
TORSDOF 4
ENDMDL
MODEL 3
REMARK VINA RESULT:    -4.056     14.176     15.166
REMARK INTER + INTRA:          -5.536
REMARK INTER:                  -4.897
REMARK INTRA:                  -0.639
REMARK UNBOUND:                -0.651
REMARK  Name = results/c63330de-fdea-433d-b1fe-612e20954cd7_ligand.pdb
REMARK  5 active torsions:
REMARK  status: ('A' for Active; 'I' for Inactive)
REMARK    1  A    between atoms: C1_1  and  C2_2
REMARK    2  A    between atoms: C2_2  and  O2_4
REMARK    3  A    between atoms: O2_4  and  C3_5
REMARK    4  A    between atoms: C8_10  and  C9_11
REMARK    5  A    between atoms: C9_11  and  O4_13
REMARK                            x       y       z     vdW  Elec       q    Type
REMARK                         _______ _______ _______ _____ _____    ______ ____
ROOT
ATOM      1  C3  UNL     1      -3.772  -4.411   1.614  0.00  0.00    +0.000 A 
ATOM      2  C4  UNL     1      -3.342  -3.854   2.834  0.00  0.00    +0.000 A 
ATOM      3  C5  UNL     1      -3.696  -2.550   3.182  0.00  0.00    +0.000 A 
ATOM      4  C6  UNL     1      -4.472  -1.782   2.318  0.00  0.00    +0.000 A 
ATOM      5  C7  UNL     1      -4.890  -2.311   1.096  0.00  0.00    +0.000 A 
ATOM      6  C8  UNL     1      -4.545  -3.624   0.723  0.00  0.00    +0.000 A 
ENDROOT
BRANCH   6   7
ATOM      7  C9  UNL     1      -5.011  -4.146  -0.589  0.00  0.00    +0.000 C 
ATOM      8  O3  UNL     1      -4.730  -3.548  -1.662  0.00  0.00    +0.000 OA
BRANCH   7   9
ATOM      9  O4  UNL     1      -5.768  -5.313  -0.646  0.00  0.00    +0.000 OA
ATOM     10  H8  UNL     1      -5.799  -5.954   0.139  0.00  0.00    +0.000 HD
ENDBRANCH   7   9
ENDBRANCH   6   7
BRANCH   1  11
ATOM     11  O2  UNL     1      -3.407  -5.719   1.252  0.00  0.00    +0.000 OA
BRANCH  11  13
ATOM     12  C1  UNL     1      -3.246  -8.160   1.739  0.00  0.00    +0.000 C 
ATOM     13  C2  UNL     1      -4.025  -6.889   1.709  0.00  0.00    +0.000 C 
ATOM     14  O1  UNL     1      -5.252  -6.905   1.999  0.00  0.00    +0.000 OA
ENDBRANCH  11  13
ENDBRANCH   1  11
TORSDOF 4
ENDMDL
MODEL 4
REMARK VINA RESULT:    -3.964      2.799      4.043
REMARK INTER + INTRA:          -5.426
REMARK INTER:                  -4.702
REMARK INTRA:                  -0.724
REMARK UNBOUND:                -0.651
REMARK  Name = results/c63330de-fdea-433d-b1fe-612e20954cd7_ligand.pdb
REMARK  5 active torsions:
REMARK  status: ('A' for Active; 'I' for Inactive)
REMARK    1  A    between atoms: C1_1  and  C2_2
REMARK    2  A    between atoms: C2_2  and  O2_4
REMARK    3  A    between atoms: O2_4  and  C3_5
REMARK    4  A    between atoms: C8_10  and  C9_11
REMARK    5  A    between atoms: C9_11  and  O4_13
REMARK                            x       y       z     vdW  Elec       q    Type
REMARK                         _______ _______ _______ _____ _____    ______ ____
ROOT
ATOM      1  C3  UNL     1       9.062  -4.741  -1.483  0.00  0.00    +0.000 A 
ATOM      2  C4  UNL     1       9.596  -3.536  -0.985  0.00  0.00    +0.000 A 
ATOM      3  C5  UNL     1      10.550  -2.827  -1.716  0.00  0.00    +0.000 A 
ATOM      4  C6  UNL     1      10.991  -3.312  -2.944  0.00  0.00    +0.000 A 
ATOM      5  C7  UNL     1      10.487  -4.514  -3.445  0.00  0.00    +0.000 A 
ATOM      6  C8  UNL     1       9.524  -5.247  -2.723  0.00  0.00    +0.000 A 
ENDROOT
BRANCH   6   7
ATOM      7  C9  UNL     1       9.016  -6.523  -3.293  0.00  0.00    +0.000 C 
ATOM      8  O3  UNL     1       8.401  -6.543  -4.393  0.00  0.00    +0.000 OA
BRANCH   7   9
ATOM      9  O4  UNL     1       9.217  -7.720  -2.611  0.00  0.00    +0.000 OA
ATOM     10  H8  UNL     1      10.005  -8.318  -2.828  0.00  0.00    +0.000 HD
ENDBRANCH   7   9
ENDBRANCH   6   7
BRANCH   1  11
ATOM     11  O2  UNL     1       8.111  -5.466  -0.744  0.00  0.00    +0.000 OA
BRANCH  11  13
ATOM     12  C1  UNL     1       7.759  -5.878   1.691  0.00  0.00    +0.000 C 
ATOM     13  C2  UNL     1       8.386  -6.242   0.388  0.00  0.00    +0.000 C 
ATOM     14  O1  UNL     1       9.228  -7.180   0.345  0.00  0.00    +0.000 OA
ENDBRANCH  11  13
ENDBRANCH   1  11
TORSDOF 4
ENDMDL
MODEL 5
REMARK VINA RESULT:    -3.802     13.841     15.252
REMARK INTER + INTRA:          -5.231
REMARK INTER:                  -4.718
REMARK INTRA:                  -0.513
REMARK UNBOUND:                -0.651
REMARK  Name = results/c63330de-fdea-433d-b1fe-612e20954cd7_ligand.pdb
REMARK  5 active torsions:
REMARK  status: ('A' for Active; 'I' for Inactive)
REMARK    1  A    between atoms: C1_1  and  C2_2
REMARK    2  A    between atoms: C2_2  and  O2_4
REMARK    3  A    between atoms: O2_4  and  C3_5
REMARK    4  A    between atoms: C8_10  and  C9_11
REMARK    5  A    between atoms: C9_11  and  O4_13
REMARK                            x       y       z     vdW  Elec       q    Type
REMARK                         _______ _______ _______ _____ _____    ______ ____
ROOT
ATOM      1  C3  UNL     1      -4.715  -3.917   0.525  0.00  0.00    +0.000 A 
ATOM      2  C4  UNL     1      -4.974  -3.173  -0.644  0.00  0.00    +0.000 A 
ATOM      3  C5  UNL     1      -5.058  -1.781  -0.595  0.00  0.00    +0.000 A 
ATOM      4  C6  UNL     1      -4.896  -1.113   0.615  0.00  0.00    +0.000 A 
ATOM      5  C7  UNL     1      -4.659  -1.835   1.787  0.00  0.00    +0.000 A 
ATOM      6  C8  UNL     1      -4.570  -3.240   1.762  0.00  0.00    +0.000 A 
ENDROOT
BRANCH   6   7
ATOM      7  C9  UNL     1      -4.317  -3.968   3.034  0.00  0.00    +0.000 C 
ATOM      8  O3  UNL     1      -3.313  -3.700   3.745  0.00  0.00    +0.000 OA
BRANCH   7   9
ATOM      9  O4  UNL     1      -5.196  -4.962   3.455  0.00  0.00    +0.000 OA
ATOM     10  H8  UNL     1      -5.133  -5.904   3.086  0.00  0.00    +0.000 HD
ENDBRANCH   7   9
ENDBRANCH   6   7
BRANCH   1  11
ATOM     11  O2  UNL     1      -4.643  -5.320   0.484  0.00  0.00    +0.000 OA
BRANCH  11  13
ATOM     12  C1  UNL     1      -3.073  -7.094   1.264  0.00  0.00    +0.000 C 
ATOM     13  C2  UNL     1      -3.479  -6.065   0.264  0.00  0.00    +0.000 C 
ATOM     14  O1  UNL     1      -2.720  -5.814  -0.711  0.00  0.00    +0.000 OA
ENDBRANCH  11  13
ENDBRANCH   1  11
TORSDOF 4
ENDMDL
MODEL 6
REMARK VINA RESULT:    -3.780     14.982     16.443
REMARK INTER + INTRA:          -5.204
REMARK INTER:                  -4.820
REMARK INTRA:                  -0.384
REMARK UNBOUND:                -0.651
REMARK  Name = results/c63330de-fdea-433d-b1fe-612e20954cd7_ligand.pdb
REMARK  5 active torsions:
REMARK  status: ('A' for Active; 'I' for Inactive)
REMARK    1  A    between atoms: C1_1  and  C2_2
REMARK    2  A    between atoms: C2_2  and  O2_4
REMARK    3  A    between atoms: O2_4  and  C3_5
REMARK    4  A    between atoms: C8_10  and  C9_11
REMARK    5  A    between atoms: C9_11  and  O4_13
REMARK                            x       y       z     vdW  Elec       q    Type
REMARK                         _______ _______ _______ _____ _____    ______ ____
ROOT
ATOM      1  C3  UNL     1      -4.659  -4.657   2.705  0.00  0.00    +0.000 A 
ATOM      2  C4  UNL     1      -3.522  -3.826   2.723  0.00  0.00    +0.000 A 
ATOM      3  C5  UNL     1      -3.658  -2.438   2.779  0.00  0.00    +0.000 A 
ATOM      4  C6  UNL     1      -4.925  -1.861   2.805  0.00  0.00    +0.000 A 
ATOM      5  C7  UNL     1      -6.063  -2.668   2.767  0.00  0.00    +0.000 A 
ATOM      6  C8  UNL     1      -5.950  -4.071   2.711  0.00  0.00    +0.000 A 
ENDROOT
BRANCH   6   7
ATOM      7  C9  UNL     1      -7.189  -4.892   2.671  0.00  0.00    +0.000 C 
ATOM      8  O3  UNL     1      -7.758  -5.154   1.578  0.00  0.00    +0.000 OA
BRANCH   7   9
ATOM      9  O4  UNL     1      -7.738  -5.385   3.852  0.00  0.00    +0.000 OA
ATOM     10  H8  UNL     1      -8.358  -6.186   3.844  0.00  0.00    +0.000 HD
ENDBRANCH   7   9
ENDBRANCH   6   7
BRANCH   1  11
ATOM     11  O2  UNL     1      -4.528  -6.055   2.636  0.00  0.00    +0.000 OA
BRANCH  11  13
ATOM     12  C1  UNL     1      -3.289  -7.974   1.633  0.00  0.00    +0.000 C 
ATOM     13  C2  UNL     1      -4.170  -6.779   1.492  0.00  0.00    +0.000 C 
ATOM     14  O1  UNL     1      -4.496  -6.381   0.341  0.00  0.00    +0.000 OA
ENDBRANCH  11  13
ENDBRANCH   1  11
TORSDOF 4
ENDMDL
MODEL 7
REMARK VINA RESULT:    -3.744     14.335     15.175
REMARK INTER + INTRA:          -5.161
REMARK INTER:                  -4.553
REMARK INTRA:                  -0.607
REMARK UNBOUND:                -0.651
REMARK  Name = results/c63330de-fdea-433d-b1fe-612e20954cd7_ligand.pdb
REMARK  5 active torsions:
REMARK  status: ('A' for Active; 'I' for Inactive)
REMARK    1  A    between atoms: C1_1  and  C2_2
REMARK    2  A    between atoms: C2_2  and  O2_4
REMARK    3  A    between atoms: O2_4  and  C3_5
REMARK    4  A    between atoms: C8_10  and  C9_11
REMARK    5  A    between atoms: C9_11  and  O4_13
REMARK                            x       y       z     vdW  Elec       q    Type
REMARK                         _______ _______ _______ _____ _____    ______ ____
ROOT
ATOM      1  C3  UNL     1      -4.934  -2.433   1.047  0.00  0.00    +0.000 A 
ATOM      2  C4  UNL     1      -4.648  -1.837   2.291  0.00  0.00    +0.000 A 
ATOM      3  C5  UNL     1      -3.815  -2.476   3.210  0.00  0.00    +0.000 A 
ATOM      4  C6  UNL     1      -3.267  -3.720   2.908  0.00  0.00    +0.000 A 
ATOM      5  C7  UNL     1      -3.555  -4.335   1.689  0.00  0.00    +0.000 A 
ATOM      6  C8  UNL     1      -4.393  -3.708   0.747  0.00  0.00    +0.000 A 
ENDROOT
BRANCH   6   7
ATOM      7  C9  UNL     1      -4.674  -4.401  -0.539  0.00  0.00    +0.000 C 
ATOM      8  O3  UNL     1      -4.909  -5.638  -0.572  0.00  0.00    +0.000 OA
BRANCH   7   9
ATOM      9  O4  UNL     1      -4.681  -3.682  -1.732  0.00  0.00    +0.000 OA
ATOM     10  H8  UNL     1      -4.584  -2.673  -1.733  0.00  0.00    +0.000 HD
ENDBRANCH   7   9
ENDBRANCH   6   7
BRANCH   1  11
ATOM     11  O2  UNL     1      -5.783  -1.800   0.124  0.00  0.00    +0.000 OA
BRANCH  11  13
ATOM     12  C1  UNL     1      -4.355  -0.116  -1.037  0.00  0.00    +0.000 C 
ATOM     13  C2  UNL     1      -5.627  -0.494  -0.357  0.00  0.00    +0.000 C 
ATOM     14  O1  UNL     1      -6.500   0.388  -0.138  0.00  0.00    +0.000 OA
ENDBRANCH  11  13
ENDBRANCH   1  11
TORSDOF 4
ENDMDL
MODEL 8
REMARK VINA RESULT:    -3.693      7.687     10.237
REMARK INTER + INTRA:          -5.100
REMARK INTER:                  -4.396
REMARK INTRA:                  -0.704
REMARK UNBOUND:                -0.651
REMARK  Name = results/c63330de-fdea-433d-b1fe-612e20954cd7_ligand.pdb
REMARK  5 active torsions:
REMARK  status: ('A' for Active; 'I' for Inactive)
REMARK    1  A    between atoms: C1_1  and  C2_2
REMARK    2  A    between atoms: C2_2  and  O2_4
REMARK    3  A    between atoms: O2_4  and  C3_5
REMARK    4  A    between atoms: C8_10  and  C9_11
REMARK    5  A    between atoms: C9_11  and  O4_13
REMARK                            x       y       z     vdW  Elec       q    Type
REMARK                         _______ _______ _______ _____ _____    ______ ____
ROOT
ATOM      1  C3  UNL     1       6.214  -1.807   6.570  0.00  0.00    +0.000 A 
ATOM      2  C4  UNL     1       6.575  -0.527   6.105  0.00  0.00    +0.000 A 
ATOM      3  C5  UNL     1       5.624   0.490   6.018  0.00  0.00    +0.000 A 
ATOM      4  C6  UNL     1       4.302   0.244   6.381  0.00  0.00    +0.000 A 
ATOM      5  C7  UNL     1       3.923  -1.024   6.825  0.00  0.00    +0.000 A 
ATOM      6  C8  UNL     1       4.866  -2.066   6.920  0.00  0.00    +0.000 A 
ENDROOT
BRANCH   6   7
ATOM      7  C9  UNL     1       4.417  -3.401   7.397  0.00  0.00    +0.000 C 
ATOM      8  O3  UNL     1       4.060  -3.577   8.593  0.00  0.00    +0.000 OA
BRANCH   7   9
ATOM      9  O4  UNL     1       4.388  -4.481   6.519  0.00  0.00    +0.000 OA
ATOM     10  H8  UNL     1       3.694  -4.535   5.782  0.00  0.00    +0.000 HD
ENDBRANCH   7   9
ENDBRANCH   6   7
BRANCH   1  11
ATOM     11  O2  UNL     1       7.166  -2.839   6.645  0.00  0.00    +0.000 OA
BRANCH  11  13
ATOM     12  C1  UNL     1       8.938  -3.205   4.929  0.00  0.00    +0.000 C 
ATOM     13  C2  UNL     1       7.641  -3.584   5.560  0.00  0.00    +0.000 C 
ATOM     14  O1  UNL     1       6.947  -4.503   5.048  0.00  0.00    +0.000 OA
ENDBRANCH  11  13
ENDBRANCH   1  11
TORSDOF 4
ENDMDL
MODEL 9
REMARK VINA RESULT:    -3.662      9.994     12.604
REMARK INTER + INTRA:          -5.062
REMARK INTER:                  -4.328
REMARK INTRA:                  -0.734
REMARK UNBOUND:                -0.651
REMARK  Name = results/c63330de-fdea-433d-b1fe-612e20954cd7_ligand.pdb
REMARK  5 active torsions:
REMARK  status: ('A' for Active; 'I' for Inactive)
REMARK    1  A    between atoms: C1_1  and  C2_2
REMARK    2  A    between atoms: C2_2  and  O2_4
REMARK    3  A    between atoms: O2_4  and  C3_5
REMARK    4  A    between atoms: C8_10  and  C9_11
REMARK    5  A    between atoms: C9_11  and  O4_13
REMARK                            x       y       z     vdW  Elec       q    Type
REMARK                         _______ _______ _______ _____ _____    ______ ____
ROOT
ATOM      1  C3  UNL     1       4.555  -0.894   7.726  0.00  0.00    +0.000 A 
ATOM      2  C4  UNL     1       4.078  -0.361   6.512  0.00  0.00    +0.000 A 
ATOM      3  C5  UNL     1       3.317   0.808   6.501  0.00  0.00    +0.000 A 
ATOM      4  C6  UNL     1       3.013   1.455   7.695  0.00  0.00    +0.000 A 
ATOM      5  C7  UNL     1       3.460   0.931   8.909  0.00  0.00    +0.000 A 
ATOM      6  C8  UNL     1       4.228  -0.248   8.945  0.00  0.00    +0.000 A 
ENDROOT
BRANCH   6   7
ATOM      7  C9  UNL     1       4.683  -0.772  10.261  0.00  0.00    +0.000 C 
ATOM      8  O3  UNL     1       5.454  -0.099  10.996  0.00  0.00    +0.000 OA
BRANCH   7   9
ATOM      9  O4  UNL     1       4.256  -2.023  10.698  0.00  0.00    +0.000 OA
ATOM     10  H8  UNL     1       3.561  -2.110  11.430  0.00  0.00    +0.000 HD
ENDBRANCH   7   9
ENDBRANCH   6   7
BRANCH   1  11
ATOM     11  O2  UNL     1       5.310  -2.079   7.744  0.00  0.00    +0.000 OA
BRANCH  11  13
ATOM     12  C1  UNL     1       5.140  -4.037   6.208  0.00  0.00    +0.000 C 
ATOM     13  C2  UNL     1       4.809  -3.362   7.496  0.00  0.00    +0.000 C 
ATOM     14  O1  UNL     1       4.005  -3.914   8.296  0.00  0.00    +0.000 OA
ENDBRANCH  11  13
ENDBRANCH   1  11
TORSDOF 4
ENDMDL
