MODEL 1
REMARK VINA RESULT:    -2.944      0.000      0.000
REMARK INTER + INTRA:          -3.610
REMARK INTER:                  -3.460
REMARK INTRA:                  -0.150
REMARK UNBOUND:                -0.150
REMARK  Name = results/3e1f72cf-8cfc-4a05-b886-6febb9755e84_ligand.pdb
REMARK  6 active torsions:
REMARK  status: ('A' for Active; 'I' for Inactive)
REMARK    1  A    between atoms: C1_1  and  C2_2
REMARK    2  A    between atoms: C2_2  and  N1_3
REMARK    3  A    between atoms: N1_3  and  C3_4
REMARK    4  A    between atoms: N1_3  and  C5_6
REMARK    5  A    between atoms: C3_4  and  C4_5
REMARK    6  A    between atoms: C5_6  and  C6_7
REMARK                            x       y       z     vdW  Elec       q    Type
REMARK                         _______ _______ _______ _____ _____    ______ ____
ROOT
ATOM      1  N1  UNL     1      -4.530  -3.280   2.205  0.00  0.00    +0.000 NA
ENDROOT
BRANCH   1   3
ATOM      2  C1  UNL     1      -5.936  -1.360   2.824  0.00  0.00    +0.000 C 
ATOM      3  C2  UNL     1      -4.578  -1.797   2.286  0.00  0.00    +0.000 C 
ENDBRANCH   1   3
BRANCH   1   4
ATOM      4  C3  UNL     1      -3.712  -3.864   3.293  0.00  0.00    +0.000 C 
ATOM      5  C4  UNL     1      -2.636  -2.883   3.759  0.00  0.00    +0.000 C 
ENDBRANCH   1   4
BRANCH   1   6
ATOM      6  C5  UNL     1      -4.041  -3.742   0.886  0.00  0.00    +0.000 C 
ATOM      7  C6  UNL     1      -3.511  -5.174   0.968  0.00  0.00    +0.000 C 
ENDBRANCH   1   6
TORSDOF 3
ENDMDL
MODEL 2
REMARK VINA RESULT:    -2.918      0.379      3.072
REMARK INTER + INTRA:          -3.579
REMARK INTER:                  -3.418
REMARK INTRA:                  -0.161
REMARK UNBOUND:                -0.150
REMARK  Name = results/3e1f72cf-8cfc-4a05-b886-6febb9755e84_ligand.pdb
REMARK  6 active torsions:
REMARK  status: ('A' for Active; 'I' for Inactive)
REMARK    1  A    between atoms: C1_1  and  C2_2
REMARK    2  A    between atoms: C2_2  and  N1_3
REMARK    3  A    between atoms: N1_3  and  C3_4
REMARK    4  A    between atoms: N1_3  and  C5_6
REMARK    5  A    between atoms: C3_4  and  C4_5
REMARK    6  A    between atoms: C5_6  and  C6_7
REMARK                            x       y       z     vdW  Elec       q    Type
REMARK                         _______ _______ _______ _____ _____    ______ ____
ROOT
ATOM      1  N1  UNL     1      -4.534  -3.245   2.121  0.00  0.00    +0.000 NA
ENDROOT
BRANCH   1   3
ATOM      2  C1  UNL     1      -3.689  -4.795   0.410  0.00  0.00    +0.000 C 
ATOM      3  C2  UNL     1      -4.382  -3.461   0.658  0.00  0.00    +0.000 C 
ENDBRANCH   1   3
BRANCH   1   4
ATOM      4  C3  UNL     1      -4.570  -1.804   2.464  0.00  0.00    +0.000 C 
ATOM      5  C4  UNL     1      -5.994  -1.352   2.786  0.00  0.00    +0.000 C 
ENDBRANCH   1   4
BRANCH   1   6
ATOM      6  C5  UNL     1      -3.474  -3.934   2.892  0.00  0.00    +0.000 C 
ATOM      7  C6  UNL     1      -2.669  -2.939   3.728  0.00  0.00    +0.000 C 
ENDBRANCH   1   6
TORSDOF 3
ENDMDL
MODEL 3
REMARK VINA RESULT:    -2.899      0.648      2.385
REMARK INTER + INTRA:          -3.557
REMARK INTER:                  -3.400
REMARK INTRA:                  -0.157
REMARK UNBOUND:                -0.150
REMARK  Name = results/3e1f72cf-8cfc-4a05-b886-6febb9755e84_ligand.pdb
REMARK  6 active torsions:
REMARK  status: ('A' for Active; 'I' for Inactive)
REMARK    1  A    between atoms: C1_1  and  C2_2
REMARK    2  A    between atoms: C2_2  and  N1_3
REMARK    3  A    between atoms: N1_3  and  C3_4
REMARK    4  A    between atoms: N1_3  and  C5_6
REMARK    5  A    between atoms: C3_4  and  C4_5
REMARK    6  A    between atoms: C5_6  and  C6_7
REMARK                            x       y       z     vdW  Elec       q    Type
REMARK                         _______ _______ _______ _____ _____    ______ ____
ROOT
ATOM      1  N1  UNL     1      -4.290  -3.067   2.050  0.00  0.00    +0.000 NA
ENDROOT
BRANCH   1   3
ATOM      2  C1  UNL     1      -2.580  -2.885   3.808  0.00  0.00    +0.000 C 
ATOM      3  C2  UNL     1      -3.401  -3.843   2.954  0.00  0.00    +0.000 C 
ENDBRANCH   1   3
BRANCH   1   4
ATOM      4  C3  UNL     1      -5.612  -2.811   2.666  0.00  0.00    +0.000 C 
ATOM      5  C4  UNL     1      -5.852  -1.312   2.848  0.00  0.00    +0.000 C 
ENDBRANCH   1   4
BRANCH   1   6
ATOM      6  C5  UNL     1      -4.451  -3.729   0.736  0.00  0.00    +0.000 C 
ATOM      7  C6  UNL     1      -3.554  -4.962   0.629  0.00  0.00    +0.000 C 
ENDBRANCH   1   6
TORSDOF 3
ENDMDL
MODEL 4
REMARK VINA RESULT:    -2.888      0.670      2.907
REMARK INTER + INTRA:          -3.545
REMARK INTER:                  -3.387
REMARK INTRA:                  -0.158
REMARK UNBOUND:                -0.150
REMARK  Name = results/3e1f72cf-8cfc-4a05-b886-6febb9755e84_ligand.pdb
REMARK  6 active torsions:
REMARK  status: ('A' for Active; 'I' for Inactive)
REMARK    1  A    between atoms: C1_1  and  C2_2
REMARK    2  A    between atoms: C2_2  and  N1_3
REMARK    3  A    between atoms: N1_3  and  C3_4
REMARK    4  A    between atoms: N1_3  and  C5_6
REMARK    5  A    between atoms: C3_4  and  C4_5
REMARK    6  A    between atoms: C5_6  and  C6_7
REMARK                            x       y       z     vdW  Elec       q    Type
REMARK                         _______ _______ _______ _____ _____    ______ ____
ROOT
ATOM      1  N1  UNL     1      -4.369  -2.891   2.078  0.00  0.00    +0.000 NA
ENDROOT
BRANCH   1   3
ATOM      2  C1  UNL     1      -3.714  -4.819   0.700  0.00  0.00    +0.000 C 
ATOM      3  C2  UNL     1      -4.342  -3.431   0.693  0.00  0.00    +0.000 C 
ENDBRANCH   1   3
BRANCH   1   4
ATOM      4  C3  UNL     1      -3.581  -3.728   3.010  0.00  0.00    +0.000 C 
ATOM      5  C4  UNL     1      -2.565  -2.884   3.782  0.00  0.00    +0.000 C 
ENDBRANCH   1   4
BRANCH   1   6
ATOM      6  C5  UNL     1      -5.754  -2.725   2.576  0.00  0.00    +0.000 C 
ATOM      7  C6  UNL     1      -6.090  -1.248   2.780  0.00  0.00    +0.000 C 
ENDBRANCH   1   6
TORSDOF 3
ENDMDL
MODEL 5
REMARK VINA RESULT:    -2.886      0.595      2.452
REMARK INTER + INTRA:          -3.541
REMARK INTER:                  -3.390
REMARK INTRA:                  -0.152
REMARK UNBOUND:                -0.150
REMARK  Name = results/3e1f72cf-8cfc-4a05-b886-6febb9755e84_ligand.pdb
REMARK  6 active torsions:
REMARK  status: ('A' for Active; 'I' for Inactive)
REMARK    1  A    between atoms: C1_1  and  C2_2
REMARK    2  A    between atoms: C2_2  and  N1_3
REMARK    3  A    between atoms: N1_3  and  C3_4
REMARK    4  A    between atoms: N1_3  and  C5_6
REMARK    5  A    between atoms: C3_4  and  C4_5
REMARK    6  A    between atoms: C5_6  and  C6_7
REMARK                            x       y       z     vdW  Elec       q    Type
REMARK                         _______ _______ _______ _____ _____    ______ ____
ROOT
ATOM      1  N1  UNL     1      -4.353  -3.090   2.063  0.00  0.00    +0.000 NA
ENDROOT
BRANCH   1   3
ATOM      2  C1  UNL     1      -5.884  -1.337   2.855  0.00  0.00    +0.000 C 
ATOM      3  C2  UNL     1      -5.754  -2.805   2.469  0.00  0.00    +0.000 C 
ENDBRANCH   1   3
BRANCH   1   4
ATOM      4  C3  UNL     1      -4.291  -3.846   0.791  0.00  0.00    +0.000 C 
ATOM      5  C4  UNL     1      -3.437  -5.105   0.941  0.00  0.00    +0.000 C 
ENDBRANCH   1   4
BRANCH   1   6
ATOM      6  C5  UNL     1      -3.607  -3.803   3.125  0.00  0.00    +0.000 C 
ATOM      7  C6  UNL     1      -2.612  -2.871   3.817  0.00  0.00    +0.000 C 
ENDBRANCH   1   6
TORSDOF 3
ENDMDL
MODEL 6
REMARK VINA RESULT:    -2.885      0.432      3.290
REMARK INTER + INTRA:          -3.541
REMARK INTER:                  -3.381
REMARK INTRA:                  -0.160
REMARK UNBOUND:                -0.150
REMARK  Name = results/3e1f72cf-8cfc-4a05-b886-6febb9755e84_ligand.pdb
REMARK  6 active torsions:
REMARK  status: ('A' for Active; 'I' for Inactive)
REMARK    1  A    between atoms: C1_1  and  C2_2
REMARK    2  A    between atoms: C2_2  and  N1_3
REMARK    3  A    between atoms: N1_3  and  C3_4
REMARK    4  A    between atoms: N1_3  and  C5_6
REMARK    5  A    between atoms: C3_4  and  C4_5
REMARK    6  A    between atoms: C5_6  and  C6_7
REMARK                            x       y       z     vdW  Elec       q    Type
REMARK                         _______ _______ _______ _____ _____    ______ ____
ROOT
ATOM      1  N1  UNL     1      -4.537  -3.158   2.109  0.00  0.00    +0.000 NA
ENDROOT
BRANCH   1   3
ATOM      2  C1  UNL     1      -2.665  -2.951   3.689  0.00  0.00    +0.000 C 
ATOM      3  C2  UNL     1      -3.562  -3.922   2.931  0.00  0.00    +0.000 C 
ENDBRANCH   1   3
BRANCH   1   4
ATOM      4  C3  UNL     1      -4.253  -3.282   0.661  0.00  0.00    +0.000 C 
ATOM      5  C4  UNL     1      -3.800  -4.699   0.310  0.00  0.00    +0.000 C 
ENDBRANCH   1   4
BRANCH   1   6
ATOM      6  C5  UNL     1      -4.591  -1.732   2.505  0.00  0.00    +0.000 C 
ATOM      7  C6  UNL     1      -6.027  -1.298   2.800  0.00  0.00    +0.000 C 
ENDBRANCH   1   6
TORSDOF 3
ENDMDL
MODEL 7
REMARK VINA RESULT:    -2.760      1.578      2.146
REMARK INTER + INTRA:          -3.394
REMARK INTER:                  -3.279
REMARK INTRA:                  -0.115
REMARK UNBOUND:                -0.150
REMARK  Name = results/3e1f72cf-8cfc-4a05-b886-6febb9755e84_ligand.pdb
REMARK  6 active torsions:
REMARK  status: ('A' for Active; 'I' for Inactive)
REMARK    1  A    between atoms: C1_1  and  C2_2
REMARK    2  A    between atoms: C2_2  and  N1_3
REMARK    3  A    between atoms: N1_3  and  C3_4
REMARK    4  A    between atoms: N1_3  and  C5_6
REMARK    5  A    between atoms: C3_4  and  C4_5
REMARK    6  A    between atoms: C5_6  and  C6_7
REMARK                            x       y       z     vdW  Elec       q    Type
REMARK                         _______ _______ _______ _____ _____    ______ ____
ROOT
ATOM      1  N1  UNL     1      -3.737  -4.784   2.082  0.00  0.00    +0.000 NA
ENDROOT
BRANCH   1   3
ATOM      2  C1  UNL     1      -5.998  -4.608   3.034  0.00  0.00    +0.000 C 
ATOM      3  C2  UNL     1      -4.919  -5.563   2.537  0.00  0.00    +0.000 C 
ENDBRANCH   1   3
BRANCH   1   4
ATOM      4  C3  UNL     1      -3.799  -3.376   2.535  0.00  0.00    +0.000 C 
ATOM      5  C4  UNL     1      -2.724  -3.090   3.585  0.00  0.00    +0.000 C 
ENDBRANCH   1   4
BRANCH   1   6
ATOM      6  C5  UNL     1      -3.571  -4.848   0.611  0.00  0.00    +0.000 C 
ATOM      7  C6  UNL     1      -2.855  -6.132   0.196  0.00  0.00    +0.000 C 
ENDBRANCH   1   6
TORSDOF 3
ENDMDL
MODEL 8
REMARK VINA RESULT:    -2.724      1.705      3.341
REMARK INTER + INTRA:          -3.351
REMARK INTER:                  -3.195
REMARK INTRA:                  -0.156
REMARK UNBOUND:                -0.150
REMARK  Name = results/3e1f72cf-8cfc-4a05-b886-6febb9755e84_ligand.pdb
REMARK  6 active torsions:
REMARK  status: ('A' for Active; 'I' for Inactive)
REMARK    1  A    between atoms: C1_1  and  C2_2
REMARK    2  A    between atoms: C2_2  and  N1_3
REMARK    3  A    between atoms: N1_3  and  C3_4
REMARK    4  A    between atoms: N1_3  and  C5_6
REMARK    5  A    between atoms: C3_4  and  C4_5
REMARK    6  A    between atoms: C5_6  and  C6_7
REMARK                            x       y       z     vdW  Elec       q    Type
REMARK                         _______ _______ _______ _____ _____    ______ ____
ROOT
ATOM      1  N1  UNL     1      -4.965  -3.572   3.032  0.00  0.00    +0.000 NA
ENDROOT
BRANCH   1   3
ATOM      2  C1  UNL     1      -2.687  -2.997   3.759  0.00  0.00    +0.000 C 
ATOM      3  C2  UNL     1      -3.543  -3.506   2.605  0.00  0.00    +0.000 C 
ENDBRANCH   1   3
BRANCH   1   4
ATOM      4  C3  UNL     1      -5.491  -4.955   2.983  0.00  0.00    +0.000 C 
ATOM      5  C4  UNL     1      -7.019  -4.965   3.035  0.00  0.00    +0.000 C 
ENDBRANCH   1   4
BRANCH   1   6
ATOM      6  C5  UNL     1      -5.821  -2.664   2.234  0.00  0.00    +0.000 C 
ATOM      7  C6  UNL     1      -5.860  -1.266   2.849  0.00  0.00    +0.000 C 
ENDBRANCH   1   6
TORSDOF 3
ENDMDL
MODEL 9
REMARK VINA RESULT:    -2.711      1.502      3.054
REMARK INTER + INTRA:          -3.337
REMARK INTER:                  -3.154
REMARK INTRA:                  -0.182
REMARK UNBOUND:                -0.150
REMARK  Name = results/3e1f72cf-8cfc-4a05-b886-6febb9755e84_ligand.pdb
REMARK  6 active torsions:
REMARK  status: ('A' for Active; 'I' for Inactive)
REMARK    1  A    between atoms: C1_1  and  C2_2
REMARK    2  A    between atoms: C2_2  and  N1_3
REMARK    3  A    between atoms: N1_3  and  C3_4
REMARK    4  A    between atoms: N1_3  and  C5_6
REMARK    5  A    between atoms: C3_4  and  C4_5
REMARK    6  A    between atoms: C5_6  and  C6_7
REMARK                            x       y       z     vdW  Elec       q    Type
REMARK                         _______ _______ _______ _____ _____    ______ ____
ROOT
ATOM      1  N1  UNL     1      -3.802  -4.735   2.139  0.00  0.00    +0.000 NA
ENDROOT
BRANCH   1   3
ATOM      2  C1  UNL     1      -4.494  -3.586   0.079  0.00  0.00    +0.000 C 
ATOM      3  C2  UNL     1      -3.619  -4.687   0.665  0.00  0.00    +0.000 C 
ENDBRANCH   1   3
BRANCH   1   4
ATOM      4  C3  UNL     1      -4.965  -5.568   2.522  0.00  0.00    +0.000 C 
ATOM      5  C4  UNL     1      -6.059  -4.719   3.171  0.00  0.00    +0.000 C 
ENDBRANCH   1   4
BRANCH   1   6
ATOM      6  C5  UNL     1      -3.922  -3.379   2.723  0.00  0.00    +0.000 C 
ATOM      7  C6  UNL     1      -2.734  -3.066   3.631  0.00  0.00    +0.000 C 
ENDBRANCH   1   6
TORSDOF 3
ENDMDL
