MODEL 1
REMARK VINA RESULT:    -4.217      0.000      0.000
REMARK INTER + INTRA:          -5.725
REMARK INTER:                  -5.079
REMARK INTRA:                  -0.646
REMARK UNBOUND:                -0.646
REMARK  Name = C:\Users\Bellamkonda Sowmya\Downloads\flask-backend\results\5d29694c-34fb-4a6a-a31b-dc0cc32f2358_ligand.pdb
REMARK  5 active torsions:
REMARK  status: ('A' for Active; 'I' for Inactive)
REMARK    1  A    between atoms: C1_1  and  C2_2
REMARK    2  A    between atoms: C2_2  and  O2_4
REMARK    3  A    between atoms: O2_4  and  C3_5
REMARK    4  A    between atoms: C8_10  and  C9_11
REMARK    5  A    between atoms: C9_11  and  O4_13
REMARK                            x       y       z     vdW  Elec       q    Type
REMARK                         _______ _______ _______ _____ _____    ______ ____
ROOT
ATOM      1  C3  UNL     1      10.017  -3.974  -1.095  0.00  0.00    +0.000 A 
ATOM      2  C4  UNL     1       9.196  -4.793  -0.294  0.00  0.00    +0.000 A 
ATOM      3  C5  UNL     1       8.632  -5.957  -0.813  0.00  0.00    +0.000 A 
ATOM      4  C6  UNL     1       8.868  -6.317  -2.138  0.00  0.00    +0.000 A 
ATOM      5  C7  UNL     1       9.663  -5.509  -2.952  0.00  0.00    +0.000 A 
ATOM      6  C8  UNL     1      10.244  -4.328  -2.448  0.00  0.00    +0.000 A 
ENDROOT
BRANCH   6   7
ATOM      7  C9  UNL     1      11.085  -3.491  -3.345  0.00  0.00    +0.000 C 
ATOM      8  O3  UNL     1      12.250  -3.865  -3.653  0.00  0.00    +0.000 OA
BRANCH   7   9
ATOM      9  O4  UNL     1      10.609  -2.288  -3.858  0.00  0.00    +0.000 OA
ATOM     10  H8  UNL     1      10.049  -2.267  -4.702  0.00  0.00    +0.000 HD
ENDBRANCH   7   9
ENDBRANCH   6   7
BRANCH   1  11
ATOM     11  O2  UNL     1      10.575  -2.793  -0.579  0.00  0.00    +0.000 OA
BRANCH  11  13
ATOM     12  C1  UNL     1       9.688  -1.015   0.928  0.00  0.00    +0.000 C 
ATOM     13  C2  UNL     1       9.903  -1.573  -0.437  0.00  0.00    +0.000 C 
ATOM     14  O1  UNL     1       9.394  -0.991  -1.433  0.00  0.00    +0.000 OA
ENDBRANCH  11  13
ENDBRANCH   1  11
TORSDOF 4
ENDMDL
MODEL 2
REMARK VINA RESULT:    -4.172     13.794     14.801
REMARK INTER + INTRA:          -5.671
REMARK INTER:                  -5.047
REMARK INTRA:                  -0.624
REMARK UNBOUND:                -0.646
REMARK  Name = C:\Users\Bellamkonda Sowmya\Downloads\flask-backend\results\5d29694c-34fb-4a6a-a31b-dc0cc32f2358_ligand.pdb
REMARK  5 active torsions:
REMARK  status: ('A' for Active; 'I' for Inactive)
REMARK    1  A    between atoms: C1_1  and  C2_2
REMARK    2  A    between atoms: C2_2  and  O2_4
REMARK    3  A    between atoms: O2_4  and  C3_5
REMARK    4  A    between atoms: C8_10  and  C9_11
REMARK    5  A    between atoms: C9_11  and  O4_13
REMARK                            x       y       z     vdW  Elec       q    Type
REMARK                         _______ _______ _______ _____ _____    ______ ____
ROOT
ATOM      1  C3  UNL     1      -4.519  -3.970   0.570  0.00  0.00    +0.000 A 
ATOM      2  C4  UNL     1      -4.902  -2.627   0.760  0.00  0.00    +0.000 A 
ATOM      3  C5  UNL     1      -4.576  -1.954   1.936  0.00  0.00    +0.000 A 
ATOM      4  C6  UNL     1      -3.872  -2.609   2.944  0.00  0.00    +0.000 A 
ATOM      5  C7  UNL     1      -3.500  -3.945   2.783  0.00  0.00    +0.000 A 
ATOM      6  C8  UNL     1      -3.819  -4.645   1.601  0.00  0.00    +0.000 A 
ENDROOT
BRANCH   6   7
ATOM      7  C9  UNL     1      -3.406  -6.067   1.466  0.00  0.00    +0.000 C 
ATOM      8  O3  UNL     1      -4.033  -6.971   2.082  0.00  0.00    +0.000 OA
BRANCH   7   9
ATOM      9  O4  UNL     1      -2.327  -6.427   0.663  0.00  0.00    +0.000 OA
ATOM     10  H8  UNL     1      -2.091  -5.889  -0.163  0.00  0.00    +0.000 HD
ENDBRANCH   7   9
ENDBRANCH   6   7
BRANCH   1  11
ATOM     11  O2  UNL     1      -4.859  -4.655  -0.607  0.00  0.00    +0.000 OA
BRANCH  11  13
ATOM     12  C1  UNL     1      -4.624  -3.715  -2.906  0.00  0.00    +0.000 C 
ATOM     13  C2  UNL     1      -4.144  -4.604  -1.810  0.00  0.00    +0.000 C 
ATOM     14  O1  UNL     1      -3.162  -5.368  -2.016  0.00  0.00    +0.000 OA
ENDBRANCH  11  13
ENDBRANCH   1  11
TORSDOF 4
ENDMDL
MODEL 3
REMARK VINA RESULT:    -4.058     14.177     15.170
REMARK INTER + INTRA:          -5.534
REMARK INTER:                  -4.901
REMARK INTRA:                  -0.633
REMARK UNBOUND:                -0.646
REMARK  Name = C:\Users\Bellamkonda Sowmya\Downloads\flask-backend\results\5d29694c-34fb-4a6a-a31b-dc0cc32f2358_ligand.pdb
REMARK  5 active torsions:
REMARK  status: ('A' for Active; 'I' for Inactive)
REMARK    1  A    between atoms: C1_1  and  C2_2
REMARK    2  A    between atoms: C2_2  and  O2_4
REMARK    3  A    between atoms: O2_4  and  C3_5
REMARK    4  A    between atoms: C8_10  and  C9_11
REMARK    5  A    between atoms: C9_11  and  O4_13
REMARK                            x       y       z     vdW  Elec       q    Type
REMARK                         _______ _______ _______ _____ _____    ______ ____
ROOT
ATOM      1  C3  UNL     1      -3.768  -4.401   1.620  0.00  0.00    +0.000 A 
ATOM      2  C4  UNL     1      -3.336  -3.843   2.840  0.00  0.00    +0.000 A 
ATOM      3  C5  UNL     1      -3.689  -2.539   3.189  0.00  0.00    +0.000 A 
ATOM      4  C6  UNL     1      -4.466  -1.771   2.325  0.00  0.00    +0.000 A 
ATOM      5  C7  UNL     1      -4.887  -2.300   1.104  0.00  0.00    +0.000 A 
ATOM      6  C8  UNL     1      -4.543  -3.616   0.731  0.00  0.00    +0.000 A 
ENDROOT
BRANCH   6   7
ATOM      7  C9  UNL     1      -5.009  -4.145  -0.578  0.00  0.00    +0.000 C 
ATOM      8  O3  UNL     1      -4.709  -3.547  -1.647  0.00  0.00    +0.000 OA
BRANCH   7   9
ATOM      9  O4  UNL     1      -5.781  -5.302  -0.650  0.00  0.00    +0.000 OA
ATOM     10  H8  UNL     1      -6.279  -5.543  -1.498  0.00  0.00    +0.000 HD
ENDBRANCH   7   9
ENDBRANCH   6   7
BRANCH   1  11
ATOM     11  O2  UNL     1      -3.402  -5.708   1.260  0.00  0.00    +0.000 OA
BRANCH  11  13
ATOM     12  C1  UNL     1      -3.243  -8.150   1.741  0.00  0.00    +0.000 C 
ATOM     13  C2  UNL     1      -4.020  -6.879   1.717  0.00  0.00    +0.000 C 
ATOM     14  O1  UNL     1      -5.246  -6.894   2.013  0.00  0.00    +0.000 OA
ENDBRANCH  11  13
ENDBRANCH   1  11
TORSDOF 4
ENDMDL
MODEL 4
REMARK VINA RESULT:    -3.843     13.837     15.236
REMARK INTER + INTRA:          -5.275
REMARK INTER:                  -4.794
REMARK INTRA:                  -0.481
REMARK UNBOUND:                -0.646
REMARK  Name = C:\Users\Bellamkonda Sowmya\Downloads\flask-backend\results\5d29694c-34fb-4a6a-a31b-dc0cc32f2358_ligand.pdb
REMARK  5 active torsions:
REMARK  status: ('A' for Active; 'I' for Inactive)
REMARK    1  A    between atoms: C1_1  and  C2_2
REMARK    2  A    between atoms: C2_2  and  O2_4
REMARK    3  A    between atoms: O2_4  and  C3_5
REMARK    4  A    between atoms: C8_10  and  C9_11
REMARK    5  A    between atoms: C9_11  and  O4_13
REMARK                            x       y       z     vdW  Elec       q    Type
REMARK                         _______ _______ _______ _____ _____    ______ ____
ROOT
ATOM      1  C3  UNL     1      -4.654  -3.962   0.542  0.00  0.00    +0.000 A 
ATOM      2  C4  UNL     1      -4.925  -3.242  -0.639  0.00  0.00    +0.000 A 
ATOM      3  C5  UNL     1      -5.063  -1.855  -0.609  0.00  0.00    +0.000 A 
ATOM      4  C6  UNL     1      -4.945  -1.167   0.596  0.00  0.00    +0.000 A 
ATOM      5  C7  UNL     1      -4.696  -1.864   1.779  0.00  0.00    +0.000 A 
ATOM      6  C8  UNL     1      -4.553  -3.267   1.773  0.00  0.00    +0.000 A 
ENDROOT
BRANCH   6   7
ATOM      7  C9  UNL     1      -4.289  -3.976   3.053  0.00  0.00    +0.000 C 
ATOM      8  O3  UNL     1      -3.272  -3.687   3.740  0.00  0.00    +0.000 OA
BRANCH   7   9
ATOM      9  O4  UNL     1      -5.152  -4.966   3.515  0.00  0.00    +0.000 OA
ATOM     10  H8  UNL     1      -5.738  -5.486   2.873  0.00  0.00    +0.000 HD
ENDBRANCH   7   9
ENDBRANCH   6   7
BRANCH   1  11
ATOM     11  O2  UNL     1      -4.529  -5.361   0.518  0.00  0.00    +0.000 OA
BRANCH  11  13
ATOM     12  C1  UNL     1      -2.741  -6.016  -1.092  0.00  0.00    +0.000 C 
ATOM     13  C2  UNL     1      -3.344  -6.065   0.270  0.00  0.00    +0.000 C 
ATOM     14  O1  UNL     1      -2.837  -6.815   1.148  0.00  0.00    +0.000 OA
ENDBRANCH  11  13
ENDBRANCH   1  11
TORSDOF 4
ENDMDL
MODEL 5
REMARK VINA RESULT:    -3.774      2.134      3.959
REMARK INTER + INTRA:          -5.192
REMARK INTER:                  -4.502
REMARK INTRA:                  -0.690
REMARK UNBOUND:                -0.646
REMARK  Name = C:\Users\Bellamkonda Sowmya\Downloads\flask-backend\results\5d29694c-34fb-4a6a-a31b-dc0cc32f2358_ligand.pdb
REMARK  5 active torsions:
REMARK  status: ('A' for Active; 'I' for Inactive)
REMARK    1  A    between atoms: C1_1  and  C2_2
REMARK    2  A    between atoms: C2_2  and  O2_4
REMARK    3  A    between atoms: O2_4  and  C3_5
REMARK    4  A    between atoms: C8_10  and  C9_11
REMARK    5  A    between atoms: C9_11  and  O4_13
REMARK                            x       y       z     vdW  Elec       q    Type
REMARK                         _______ _______ _______ _____ _____    ______ ____
ROOT
ATOM      1  C3  UNL     1       9.063  -5.737  -1.977  0.00  0.00    +0.000 A 
ATOM      2  C4  UNL     1       9.481  -6.365  -3.168  0.00  0.00    +0.000 A 
ATOM      3  C5  UNL     1       9.603  -7.752  -3.234  0.00  0.00    +0.000 A 
ATOM      4  C6  UNL     1       9.322  -8.532  -2.115  0.00  0.00    +0.000 A 
ATOM      5  C7  UNL     1       8.925  -7.928  -0.922  0.00  0.00    +0.000 A 
ATOM      6  C8  UNL     1       8.794  -6.527  -0.832  0.00  0.00    +0.000 A 
ENDROOT
BRANCH   6   7
ATOM      7  C9  UNL     1       8.368  -5.918   0.457  0.00  0.00    +0.000 C 
ATOM      8  O3  UNL     1       7.243  -6.199   0.950  0.00  0.00    +0.000 OA
BRANCH   7   9
ATOM      9  O4  UNL     1       9.197  -5.030   1.138  0.00  0.00    +0.000 OA
ATOM     10  H8  UNL     1       8.867  -4.109   1.403  0.00  0.00    +0.000 HD
ENDBRANCH   7   9
ENDBRANCH   6   7
BRANCH   1  11
ATOM     11  O2  UNL     1       8.952  -4.339  -1.903  0.00  0.00    +0.000 OA
BRANCH  11  13
ATOM     12  C1  UNL     1      10.712  -2.988  -3.042  0.00  0.00    +0.000 C 
ATOM     13  C2  UNL     1      10.025  -3.445  -1.801  0.00  0.00    +0.000 C 
ATOM     14  O1  UNL     1      10.479  -3.099  -0.676  0.00  0.00    +0.000 OA
ENDBRANCH  11  13
ENDBRANCH   1  11
TORSDOF 4
ENDMDL
MODEL 6
REMARK VINA RESULT:    -3.770     15.430     16.642
REMARK INTER + INTRA:          -5.187
REMARK INTER:                  -4.476
REMARK INTRA:                  -0.712
REMARK UNBOUND:                -0.646
REMARK  Name = C:\Users\Bellamkonda Sowmya\Downloads\flask-backend\results\5d29694c-34fb-4a6a-a31b-dc0cc32f2358_ligand.pdb
REMARK  5 active torsions:
REMARK  status: ('A' for Active; 'I' for Inactive)
REMARK    1  A    between atoms: C1_1  and  C2_2
REMARK    2  A    between atoms: C2_2  and  O2_4
REMARK    3  A    between atoms: O2_4  and  C3_5
REMARK    4  A    between atoms: C8_10  and  C9_11
REMARK    5  A    between atoms: C9_11  and  O4_13
REMARK                            x       y       z     vdW  Elec       q    Type
REMARK                         _______ _______ _______ _____ _____    ______ ____
ROOT
ATOM      1  C3  UNL     1      -5.725  -3.894   2.020  0.00  0.00    +0.000 A 
ATOM      2  C4  UNL     1      -5.731  -2.505   2.263  0.00  0.00    +0.000 A 
ATOM      3  C5  UNL     1      -4.612  -1.874   2.805  0.00  0.00    +0.000 A 
ATOM      4  C6  UNL     1      -3.477  -2.616   3.123  0.00  0.00    +0.000 A 
ATOM      5  C7  UNL     1      -3.459  -3.995   2.907  0.00  0.00    +0.000 A 
ATOM      6  C8  UNL     1      -4.579  -4.654   2.359  0.00  0.00    +0.000 A 
ENDROOT
BRANCH   6   7
ATOM      7  C9  UNL     1      -4.523  -6.125   2.144  0.00  0.00    +0.000 C 
ATOM      8  O3  UNL     1      -3.493  -6.654   1.644  0.00  0.00    +0.000 OA
BRANCH   7   9
ATOM      9  O4  UNL     1      -5.598  -6.940   2.487  0.00  0.00    +0.000 OA
ATOM     10  H8  UNL     1      -5.455  -7.801   3.001  0.00  0.00    +0.000 HD
ENDBRANCH   7   9
ENDBRANCH   6   7
BRANCH   1  11
ATOM     11  O2  UNL     1      -6.855  -4.534   1.487  0.00  0.00    +0.000 OA
BRANCH  11  13
ATOM     12  C1  UNL     1      -9.249  -3.866   1.689  0.00  0.00    +0.000 C 
ATOM     13  C2  UNL     1      -8.086  -4.682   2.138  0.00  0.00    +0.000 C 
ATOM     14  O1  UNL     1      -8.199  -5.419   3.155  0.00  0.00    +0.000 OA
ENDBRANCH  11  13
ENDBRANCH   1  11
TORSDOF 4
ENDMDL
MODEL 7
REMARK VINA RESULT:    -3.767     13.695     15.042
REMARK INTER + INTRA:          -5.183
REMARK INTER:                  -4.706
REMARK INTRA:                  -0.477
REMARK UNBOUND:                -0.646
REMARK  Name = C:\Users\Bellamkonda Sowmya\Downloads\flask-backend\results\5d29694c-34fb-4a6a-a31b-dc0cc32f2358_ligand.pdb
REMARK  5 active torsions:
REMARK  status: ('A' for Active; 'I' for Inactive)
REMARK    1  A    between atoms: C1_1  and  C2_2
REMARK    2  A    between atoms: C2_2  and  O2_4
REMARK    3  A    between atoms: O2_4  and  C3_5
REMARK    4  A    between atoms: C8_10  and  C9_11
REMARK    5  A    between atoms: C9_11  and  O4_13
REMARK                            x       y       z     vdW  Elec       q    Type
REMARK                         _______ _______ _______ _____ _____    ______ ____
ROOT
ATOM      1  C3  UNL     1      -4.099  -3.860   0.716  0.00  0.00    +0.000 A 
ATOM      2  C4  UNL     1      -3.506  -4.432   1.859  0.00  0.00    +0.000 A 
ATOM      3  C5  UNL     1      -3.450  -3.724   3.060  0.00  0.00    +0.000 A 
ATOM      4  C6  UNL     1      -3.973  -2.436   3.136  0.00  0.00    +0.000 A 
ATOM      5  C7  UNL     1      -4.547  -1.845   2.010  0.00  0.00    +0.000 A 
ATOM      6  C8  UNL     1      -4.615  -2.542   0.786  0.00  0.00    +0.000 A 
ENDROOT
BRANCH   6   7
ATOM      7  C9  UNL     1      -5.234  -1.880  -0.394  0.00  0.00    +0.000 C 
ATOM      8  O3  UNL     1      -4.900  -0.706  -0.710  0.00  0.00    +0.000 OA
BRANCH   7   9
ATOM      9  O4  UNL     1      -6.188  -2.538  -1.166  0.00  0.00    +0.000 OA
ATOM     10  H8  UNL     1      -5.913  -3.196  -1.885  0.00  0.00    +0.000 HD
ENDBRANCH   7   9
ENDBRANCH   6   7
BRANCH   1  11
ATOM     11  O2  UNL     1      -4.144  -4.564  -0.498  0.00  0.00    +0.000 OA
BRANCH  11  13
ATOM     12  C1  UNL     1      -2.532  -6.330  -1.206  0.00  0.00    +0.000 C 
ATOM     13  C2  UNL     1      -3.857  -5.926  -0.657  0.00  0.00    +0.000 C 
ATOM     14  O1  UNL     1      -4.734  -6.805  -0.437  0.00  0.00    +0.000 OA
ENDBRANCH  11  13
ENDBRANCH   1  11
TORSDOF 4
ENDMDL
MODEL 8
REMARK VINA RESULT:    -3.761     14.356     15.181
REMARK INTER + INTRA:          -5.176
REMARK INTER:                  -4.571
REMARK INTRA:                  -0.605
REMARK UNBOUND:                -0.646
REMARK  Name = C:\Users\Bellamkonda Sowmya\Downloads\flask-backend\results\5d29694c-34fb-4a6a-a31b-dc0cc32f2358_ligand.pdb
REMARK  5 active torsions:
REMARK  status: ('A' for Active; 'I' for Inactive)
REMARK    1  A    between atoms: C1_1  and  C2_2
REMARK    2  A    between atoms: C2_2  and  O2_4
REMARK    3  A    between atoms: O2_4  and  C3_5
REMARK    4  A    between atoms: C8_10  and  C9_11
REMARK    5  A    between atoms: C9_11  and  O4_13
REMARK                            x       y       z     vdW  Elec       q    Type
REMARK                         _______ _______ _______ _____ _____    ______ ____
ROOT
ATOM      1  C3  UNL     1      -4.921  -2.439   1.036  0.00  0.00    +0.000 A 
ATOM      2  C4  UNL     1      -4.609  -1.864   2.284  0.00  0.00    +0.000 A 
ATOM      3  C5  UNL     1      -3.776  -2.529   3.184  0.00  0.00    +0.000 A 
ATOM      4  C6  UNL     1      -3.251  -3.777   2.858  0.00  0.00    +0.000 A 
ATOM      5  C7  UNL     1      -3.564  -4.371   1.635  0.00  0.00    +0.000 A 
ATOM      6  C8  UNL     1      -4.404  -3.717   0.710  0.00  0.00    +0.000 A 
ENDROOT
BRANCH   6   7
ATOM      7  C9  UNL     1      -4.716  -4.381  -0.584  0.00  0.00    +0.000 C 
ATOM      8  O3  UNL     1      -4.952  -5.620  -0.621  0.00  0.00    +0.000 OA
BRANCH   7   9
ATOM      9  O4  UNL     1      -4.751  -3.656  -1.772  0.00  0.00    +0.000 OA
ATOM     10  H8  UNL     1      -4.379  -4.044  -2.630  0.00  0.00    +0.000 HD
ENDBRANCH   7   9
ENDBRANCH   6   7
BRANCH   1  11
ATOM     11  O2  UNL     1      -5.771  -1.779   0.134  0.00  0.00    +0.000 OA
BRANCH  11  13
ATOM     12  C1  UNL     1      -4.388  -0.073  -1.049  0.00  0.00    +0.000 C 
ATOM     13  C2  UNL     1      -5.621  -0.457  -0.304  0.00  0.00    +0.000 C 
ATOM     14  O1  UNL     1      -6.461   0.430   0.006  0.00  0.00    +0.000 OA
ENDBRANCH  11  13
ENDBRANCH   1  11
TORSDOF 4
ENDMDL
MODEL 9
REMARK VINA RESULT:    -3.681      9.901     12.484
REMARK INTER + INTRA:          -5.079
REMARK INTER:                  -4.363
REMARK INTRA:                  -0.716
REMARK UNBOUND:                -0.646
REMARK  Name = C:\Users\Bellamkonda Sowmya\Downloads\flask-backend\results\5d29694c-34fb-4a6a-a31b-dc0cc32f2358_ligand.pdb
REMARK  5 active torsions:
REMARK  status: ('A' for Active; 'I' for Inactive)
REMARK    1  A    between atoms: C1_1  and  C2_2
REMARK    2  A    between atoms: C2_2  and  O2_4
REMARK    3  A    between atoms: O2_4  and  C3_5
REMARK    4  A    between atoms: C8_10  and  C9_11
REMARK    5  A    between atoms: C9_11  and  O4_13
REMARK                            x       y       z     vdW  Elec       q    Type
REMARK                         _______ _______ _______ _____ _____    ______ ____
ROOT
ATOM      1  C3  UNL     1       4.652  -1.015   7.619  0.00  0.00    +0.000 A 
ATOM      2  C4  UNL     1       4.196  -0.466   6.404  0.00  0.00    +0.000 A 
ATOM      3  C5  UNL     1       3.437   0.704   6.394  0.00  0.00    +0.000 A 
ATOM      4  C6  UNL     1       3.112   1.337   7.591  0.00  0.00    +0.000 A 
ATOM      5  C7  UNL     1       3.539   0.797   8.806  0.00  0.00    +0.000 A 
ATOM      6  C8  UNL     1       4.307  -0.384   8.840  0.00  0.00    +0.000 A 
ENDROOT
BRANCH   6   7
ATOM      7  C9  UNL     1       4.743  -0.930  10.154  0.00  0.00    +0.000 C 
ATOM      8  O3  UNL     1       5.554  -0.284  10.871  0.00  0.00    +0.000 OA
BRANCH   7   9
ATOM      9  O4  UNL     1       4.271  -2.157  10.612  0.00  0.00    +0.000 OA
ATOM     10  H8  UNL     1       4.582  -3.024  10.193  0.00  0.00    +0.000 HD
ENDBRANCH   7   9
ENDBRANCH   6   7
BRANCH   1  11
ATOM     11  O2  UNL     1       5.404  -2.201   7.634  0.00  0.00    +0.000 OA
BRANCH  11  13
ATOM     12  C1  UNL     1       5.318  -4.260   6.229  0.00  0.00    +0.000 C 
ATOM     13  C2  UNL     1       4.893  -3.489   7.431  0.00  0.00    +0.000 C 
ATOM     14  O1  UNL     1       4.008  -3.964   8.194  0.00  0.00    +0.000 OA
ENDBRANCH  11  13
ENDBRANCH   1  11
TORSDOF 4
ENDMDL
