MODEL 1
REMARK VINA RESULT:    -3.162      0.000      0.000
REMARK INTER + INTRA:          -3.861
REMARK INTER:                  -3.716
REMARK INTRA:                  -0.145
REMARK UNBOUND:                -0.145
REMARK  Name = C:\Users\Bellamkonda Sowmya\OneDrive\Documents\backend[1]\backend\results\ligand_1764362803686.pdb
REMARK  6 active torsions:
REMARK  status: ('A' for Active; 'I' for Inactive)
REMARK    1  A    between atoms: C_1  and  C_2
REMARK    2  A    between atoms: C_2  and  N_3
REMARK    3  A    between atoms: N_3  and  C_4
REMARK    4  A    between atoms: N_3  and  C_6
REMARK    5  A    between atoms: C_4  and  C_5
REMARK    6  A    between atoms: C_6  and  C_7
REMARK                            x       y       z     vdW  Elec       q    Type
REMARK                         _______ _______ _______ _____ _____    ______ ____
ROOT
ATOM      1  N   UNL     1       5.630   3.114   4.296  0.00  0.00    +0.000 NA
ENDROOT
BRANCH   1   3
ATOM      2  C   UNL     1       3.370   2.282   4.979  0.00  0.00    +0.000 C 
ATOM      3  C   UNL     1       4.739   1.946   4.391  0.00  0.00    +0.000 C 
ENDBRANCH   1   3
BRANCH   1   4
ATOM      4  C   UNL     1       5.071   4.342   4.889  0.00  0.00    +0.000 C 
ATOM      5  C   UNL     1       5.626   4.760   6.250  0.00  0.00    +0.000 C 
ENDBRANCH   1   4
BRANCH   1   6
ATOM      6  C   UNL     1       6.980   2.837   4.811  0.00  0.00    +0.000 C 
ATOM      7  C   UNL     1       7.383   1.371   4.676  0.00  0.00    +0.000 C 
ENDBRANCH   1   6
TORSDOF 3
ENDMDL
MODEL 2
REMARK VINA RESULT:    -3.153      1.403      2.552
REMARK INTER + INTRA:          -3.851
REMARK INTER:                  -3.687
REMARK INTRA:                  -0.164
REMARK UNBOUND:                -0.145
REMARK  Name = C:\Users\Bellamkonda Sowmya\OneDrive\Documents\backend[1]\backend\results\ligand_1764362803686.pdb
REMARK  6 active torsions:
REMARK  status: ('A' for Active; 'I' for Inactive)
REMARK    1  A    between atoms: C_1  and  C_2
REMARK    2  A    between atoms: C_2  and  N_3
REMARK    3  A    between atoms: N_3  and  C_4
REMARK    4  A    between atoms: N_3  and  C_6
REMARK    5  A    between atoms: C_4  and  C_5
REMARK    6  A    between atoms: C_6  and  C_7
REMARK                            x       y       z     vdW  Elec       q    Type
REMARK                         _______ _______ _______ _____ _____    ______ ____
ROOT
ATOM      1  N   UNL     1       4.884   2.106   4.302  0.00  0.00    +0.000 NA
ENDROOT
BRANCH   1   3
ATOM      2  C   UNL     1       6.552   0.257   4.558  0.00  0.00    +0.000 C 
ATOM      3  C   UNL     1       5.921   1.510   5.161  0.00  0.00    +0.000 C 
ENDBRANCH   1   3
BRANCH   1   4
ATOM      4  C   UNL     1       3.538   2.106   4.901  0.00  0.00    +0.000 C 
ATOM      5  C   UNL     1       3.319   3.036   6.094  0.00  0.00    +0.000 C 
ENDBRANCH   1   4
BRANCH   1   6
ATOM      6  C   UNL     1       5.254   3.445   3.816  0.00  0.00    +0.000 C 
ATOM      7  C   UNL     1       6.562   3.957   4.413  0.00  0.00    +0.000 C 
ENDBRANCH   1   6
TORSDOF 3
ENDMDL
MODEL 3
REMARK VINA RESULT:    -3.137      0.345      3.003
REMARK INTER + INTRA:          -3.832
REMARK INTER:                  -3.651
REMARK INTRA:                  -0.181
REMARK UNBOUND:                -0.145
REMARK  Name = C:\Users\Bellamkonda Sowmya\OneDrive\Documents\backend[1]\backend\results\ligand_1764362803686.pdb
REMARK  6 active torsions:
REMARK  status: ('A' for Active; 'I' for Inactive)
REMARK    1  A    between atoms: C_1  and  C_2
REMARK    2  A    between atoms: C_2  and  N_3
REMARK    3  A    between atoms: N_3  and  C_4
REMARK    4  A    between atoms: N_3  and  C_6
REMARK    5  A    between atoms: C_4  and  C_5
REMARK    6  A    between atoms: C_6  and  C_7
REMARK                            x       y       z     vdW  Elec       q    Type
REMARK                         _______ _______ _______ _____ _____    ______ ____
ROOT
ATOM      1  N   UNL     1       5.702   3.444   4.494  0.00  0.00    +0.000 NA
ENDROOT
BRANCH   1   3
ATOM      2  C   UNL     1       5.607   4.891   6.535  0.00  0.00    +0.000 C 
ATOM      3  C   UNL     1       4.983   4.523   5.190  0.00  0.00    +0.000 C 
ENDBRANCH   1   3
BRANCH   1   4
ATOM      4  C   UNL     1       6.980   3.071   5.128  0.00  0.00    +0.000 C 
ATOM      5  C   UNL     1       7.438   1.624   4.947  0.00  0.00    +0.000 C 
ENDBRANCH   1   4
BRANCH   1   6
ATOM      6  C   UNL     1       4.857   2.263   4.258  0.00  0.00    +0.000 C 
ATOM      7  C   UNL     1       3.496   2.354   4.943  0.00  0.00    +0.000 C 
ENDBRANCH   1   6
TORSDOF 3
ENDMDL
MODEL 4
REMARK VINA RESULT:    -3.094      0.598      2.614
REMARK INTER + INTRA:          -3.782
REMARK INTER:                  -3.635
REMARK INTRA:                  -0.146
REMARK UNBOUND:                -0.145
REMARK  Name = C:\Users\Bellamkonda Sowmya\OneDrive\Documents\backend[1]\backend\results\ligand_1764362803686.pdb
REMARK  6 active torsions:
REMARK  status: ('A' for Active; 'I' for Inactive)
REMARK    1  A    between atoms: C_1  and  C_2
REMARK    2  A    between atoms: C_2  and  N_3
REMARK    3  A    between atoms: N_3  and  C_4
REMARK    4  A    between atoms: N_3  and  C_6
REMARK    5  A    between atoms: C_4  and  C_5
REMARK    6  A    between atoms: C_6  and  C_7
REMARK                            x       y       z     vdW  Elec       q    Type
REMARK                         _______ _______ _______ _____ _____    ______ ____
ROOT
ATOM      1  N   UNL     1       5.811   2.746   5.304  0.00  0.00    +0.000 NA
ENDROOT
BRANCH   1   3
ATOM      2  C   UNL     1       7.255   0.872   4.485  0.00  0.00    +0.000 C 
ATOM      3  C   UNL     1       7.189   2.273   5.089  0.00  0.00    +0.000 C 
ENDBRANCH   1   3
BRANCH   1   4
ATOM      4  C   UNL     1       5.650   4.204   5.162  0.00  0.00    +0.000 C 
ATOM      5  C   UNL     1       5.490   5.005   6.454  0.00  0.00    +0.000 C 
ENDBRANCH   1   4
BRANCH   1   6
ATOM      6  C   UNL     1       4.830   2.016   4.485  0.00  0.00    +0.000 C 
ATOM      7  C   UNL     1       3.390   2.235   4.940  0.00  0.00    +0.000 C 
ENDBRANCH   1   6
TORSDOF 3
ENDMDL
MODEL 5
REMARK VINA RESULT:    -3.091      0.761      2.442
REMARK INTER + INTRA:          -3.778
REMARK INTER:                  -3.672
REMARK INTRA:                  -0.106
REMARK UNBOUND:                -0.145
REMARK  Name = C:\Users\Bellamkonda Sowmya\OneDrive\Documents\backend[1]\backend\results\ligand_1764362803686.pdb
REMARK  6 active torsions:
REMARK  status: ('A' for Active; 'I' for Inactive)
REMARK    1  A    between atoms: C_1  and  C_2
REMARK    2  A    between atoms: C_2  and  N_3
REMARK    3  A    between atoms: N_3  and  C_4
REMARK    4  A    between atoms: N_3  and  C_6
REMARK    5  A    between atoms: C_4  and  C_5
REMARK    6  A    between atoms: C_6  and  C_7
REMARK                            x       y       z     vdW  Elec       q    Type
REMARK                         _______ _______ _______ _____ _____    ______ ____
ROOT
ATOM      1  N   UNL     1       5.867   2.485   5.120  0.00  0.00    +0.000 NA
ENDROOT
BRANCH   1   3
ATOM      2  C   UNL     1       5.648   4.704   6.259  0.00  0.00    +0.000 C 
ATOM      3  C   UNL     1       6.041   3.942   4.995  0.00  0.00    +0.000 C 
ENDBRANCH   1   3
BRANCH   1   4
ATOM      4  C   UNL     1       4.695   1.959   4.397  0.00  0.00    +0.000 C 
ATOM      5  C   UNL     1       3.323   2.280   4.989  0.00  0.00    +0.000 C 
ENDBRANCH   1   4
BRANCH   1   6
ATOM      6  C   UNL     1       7.088   1.740   4.776  0.00  0.00    +0.000 C 
ATOM      7  C   UNL     1       6.865   0.233   4.692  0.00  0.00    +0.000 C 
ENDBRANCH   1   6
TORSDOF 3
ENDMDL
MODEL 6
REMARK VINA RESULT:    -3.070      0.588      2.781
REMARK INTER + INTRA:          -3.754
REMARK INTER:                  -3.613
REMARK INTRA:                  -0.140
REMARK UNBOUND:                -0.145
REMARK  Name = C:\Users\Bellamkonda Sowmya\OneDrive\Documents\backend[1]\backend\results\ligand_1764362803686.pdb
REMARK  6 active torsions:
REMARK  status: ('A' for Active; 'I' for Inactive)
REMARK    1  A    between atoms: C_1  and  C_2
REMARK    2  A    between atoms: C_2  and  N_3
REMARK    3  A    between atoms: N_3  and  C_4
REMARK    4  A    between atoms: N_3  and  C_6
REMARK    5  A    between atoms: C_4  and  C_5
REMARK    6  A    between atoms: C_6  and  C_7
REMARK                            x       y       z     vdW  Elec       q    Type
REMARK                         _______ _______ _______ _____ _____    ______ ____
ROOT
ATOM      1  N   UNL     1       5.729   2.755   5.305  0.00  0.00    +0.000 NA
ENDROOT
BRANCH   1   3
ATOM      2  C   UNL     1       3.309   2.194   4.995  0.00  0.00    +0.000 C 
ATOM      3  C   UNL     1       4.741   2.026   4.492  0.00  0.00    +0.000 C 
ENDBRANCH   1   3
BRANCH   1   4
ATOM      4  C   UNL     1       7.112   2.273   5.140  0.00  0.00    +0.000 C 
ATOM      5  C   UNL     1       7.285   0.881   4.532  0.00  0.00    +0.000 C 
ENDBRANCH   1   4
BRANCH   1   6
ATOM      6  C   UNL     1       5.644   4.212   5.122  0.00  0.00    +0.000 C 
ATOM      7  C   UNL     1       5.404   4.966   6.427  0.00  0.00    +0.000 C 
ENDBRANCH   1   6
TORSDOF 3
ENDMDL
MODEL 7
REMARK VINA RESULT:    -3.051      1.699      2.221
REMARK INTER + INTRA:          -3.731
REMARK INTER:                  -3.530
REMARK INTRA:                  -0.201
REMARK UNBOUND:                -0.145
REMARK  Name = C:\Users\Bellamkonda Sowmya\OneDrive\Documents\backend[1]\backend\results\ligand_1764362803686.pdb
REMARK  6 active torsions:
REMARK  status: ('A' for Active; 'I' for Inactive)
REMARK    1  A    between atoms: C_1  and  C_2
REMARK    2  A    between atoms: C_2  and  N_3
REMARK    3  A    between atoms: N_3  and  C_4
REMARK    4  A    between atoms: N_3  and  C_6
REMARK    5  A    between atoms: C_4  and  C_5
REMARK    6  A    between atoms: C_6  and  C_7
REMARK                            x       y       z     vdW  Elec       q    Type
REMARK                         _______ _______ _______ _____ _____    ______ ____
ROOT
ATOM      1  N   UNL     1       6.963   2.424   4.757  0.00  0.00    +0.000 NA
ENDROOT
BRANCH   1   3
ATOM      2  C   UNL     1       4.959   3.447   3.661  0.00  0.00    +0.000 C 
ATOM      3  C   UNL     1       6.290   3.676   4.373  0.00  0.00    +0.000 C 
ENDBRANCH   1   3
BRANCH   1   4
ATOM      4  C   UNL     1       7.323   2.351   6.184  0.00  0.00    +0.000 C 
ATOM      5  C   UNL     1       6.375   3.040   7.166  0.00  0.00    +0.000 C 
ENDBRANCH   1   4
BRANCH   1   6
ATOM      6  C   UNL     1       6.218   1.229   4.331  0.00  0.00    +0.000 C 
ATOM      7  C   UNL     1       6.709  -0.053   4.998  0.00  0.00    +0.000 C 
ENDBRANCH   1   6
TORSDOF 3
ENDMDL
MODEL 8
REMARK VINA RESULT:    -3.039      1.715      2.539
REMARK INTER + INTRA:          -3.717
REMARK INTER:                  -3.525
REMARK INTRA:                  -0.192
REMARK UNBOUND:                -0.145
REMARK  Name = C:\Users\Bellamkonda Sowmya\OneDrive\Documents\backend[1]\backend\results\ligand_1764362803686.pdb
REMARK  6 active torsions:
REMARK  status: ('A' for Active; 'I' for Inactive)
REMARK    1  A    between atoms: C_1  and  C_2
REMARK    2  A    between atoms: C_2  and  N_3
REMARK    3  A    between atoms: N_3  and  C_4
REMARK    4  A    between atoms: N_3  and  C_6
REMARK    5  A    between atoms: C_4  and  C_5
REMARK    6  A    between atoms: C_6  and  C_7
REMARK                            x       y       z     vdW  Elec       q    Type
REMARK                         _______ _______ _______ _____ _____    ______ ____
ROOT
ATOM      1  N   UNL     1       6.964   2.430   4.741  0.00  0.00    +0.000 NA
ENDROOT
BRANCH   1   3
ATOM      2  C   UNL     1       6.853  -0.064   4.915  0.00  0.00    +0.000 C 
ATOM      3  C   UNL     1       6.178   1.221   4.444  0.00  0.00    +0.000 C 
ENDBRANCH   1   3
BRANCH   1   4
ATOM      4  C   UNL     1       6.279   3.689   4.396  0.00  0.00    +0.000 C 
ATOM      5  C   UNL     1       4.958   3.565   3.637  0.00  0.00    +0.000 C 
ENDBRANCH   1   4
BRANCH   1   6
ATOM      6  C   UNL     1       7.461   2.453   6.126  0.00  0.00    +0.000 C 
ATOM      7  C   UNL     1       6.437   2.993   7.121  0.00  0.00    +0.000 C 
ENDBRANCH   1   6
TORSDOF 3
ENDMDL
MODEL 9
REMARK VINA RESULT:    -2.996      1.660      3.191
REMARK INTER + INTRA:          -3.667
REMARK INTER:                  -3.464
REMARK INTRA:                  -0.203
REMARK UNBOUND:                -0.145
REMARK  Name = C:\Users\Bellamkonda Sowmya\OneDrive\Documents\backend[1]\backend\results\ligand_1764362803686.pdb
REMARK  6 active torsions:
REMARK  status: ('A' for Active; 'I' for Inactive)
REMARK    1  A    between atoms: C_1  and  C_2
REMARK    2  A    between atoms: C_2  and  N_3
REMARK    3  A    between atoms: N_3  and  C_4
REMARK    4  A    between atoms: N_3  and  C_6
REMARK    5  A    between atoms: C_4  and  C_5
REMARK    6  A    between atoms: C_6  and  C_7
REMARK                            x       y       z     vdW  Elec       q    Type
REMARK                         _______ _______ _______ _____ _____    ______ ____
ROOT
ATOM      1  N   UNL     1       6.738   2.686   5.039  0.00  0.00    +0.000 NA
ENDROOT
BRANCH   1   3
ATOM      2  C   UNL     1       5.633   2.823   7.282  0.00  0.00    +0.000 C 
ATOM      3  C   UNL     1       6.941   2.798   6.493  0.00  0.00    +0.000 C 
ENDBRANCH   1   3
BRANCH   1   4
ATOM      4  C   UNL     1       6.051   1.450   4.624  0.00  0.00    +0.000 C 
ATOM      5  C   UNL     1       6.864   0.158   4.694  0.00  0.00    +0.000 C 
ENDBRANCH   1   4
BRANCH   1   6
ATOM      6  C   UNL     1       6.089   3.877   4.468  0.00  0.00    +0.000 C 
ATOM      7  C   UNL     1       4.910   3.539   3.560  0.00  0.00    +0.000 C 
ENDBRANCH   1   6
TORSDOF 3
ENDMDL
