REMARK  Name = ligands/ligand.pdb
REMARK  6 active torsions:
REMARK  status: ('A' for Active; 'I' for Inactive)
REMARK    1  A    between atoms: C1_1  and  C2_2
REMARK    2  A    between atoms: C2_2  and  N1_3
REMARK    3  A    between atoms: N1_3  and  C3_4
REMARK    4  A    between atoms: N1_3  and  C5_6
REMARK    5  A    between atoms: C3_4  and  C4_5
REMARK    6  A    between atoms: C5_6  and  C6_7
REMARK                            x       y       z     vdW  Elec       q    Type
REMARK                         _______ _______ _______ _____ _____    ______ ____
ROOT
ATOM      1  N1  UNL     1      -0.051   0.095  -0.477  0.00  0.00    +0.000 NA
ENDROOT
BRANCH   1   3
ATOM      2  C1  UNL     1      -1.573  -1.943  -0.358  0.00  0.00    +0.000 C 
ATOM      3  C2  UNL     1      -1.040  -0.757  -1.159  0.00  0.00    +0.000 C 
ENDBRANCH   1   3
BRANCH   1   4
ATOM      4  C3  UNL     1      -0.632   0.813   0.666  0.00  0.00    +0.000 C 
ATOM      5  C4  UNL     1      -0.305   2.300   0.589  0.00  0.00    +0.000 C 
ENDBRANCH   1   4
BRANCH   1   6
ATOM      6  C5  UNL     1       1.170  -0.654  -0.142  0.00  0.00    +0.000 C 
ATOM      7  C6  UNL     1       2.347   0.234   0.244  0.00  0.00    +0.000 C 
ENDBRANCH   1   6
TORSDOF 3
