REMARK  Name = results/747ba49a-c62e-4c14-a280-8ff341a041f2_ligand.pdb
REMARK  5 active torsions:
REMARK  status: ('A' for Active; 'I' for Inactive)
REMARK    1  A    between atoms: C1_1  and  C2_2
REMARK    2  A    between atoms: C2_2  and  O2_4
REMARK    3  A    between atoms: O2_4  and  C3_5
REMARK    4  A    between atoms: C8_10  and  C9_11
REMARK    5  A    between atoms: C9_11  and  O4_13
REMARK                            x       y       z     vdW  Elec       q    Type
REMARK                         _______ _______ _______ _____ _____    ______ ____
ROOT
ATOM      1  C3  UNL     1      -0.099   0.280   0.045  0.00  0.00    +0.000 A 
ATOM      2  C4  UNL     1      -0.683   1.519  -0.284  0.00  0.00    +0.000 A 
ATOM      3  C5  UNL     1       0.107   2.660  -0.429  0.00  0.00    +0.000 A 
ATOM      4  C6  UNL     1       1.484   2.585  -0.238  0.00  0.00    +0.000 A 
ATOM      5  C7  UNL     1       2.078   1.370   0.108  0.00  0.00    +0.000 A 
ATOM      6  C8  UNL     1       1.300   0.206   0.260  0.00  0.00    +0.000 A 
ENDROOT
BRANCH   6   7
ATOM      7  C9  UNL     1       1.974  -1.067   0.631  0.00  0.00    +0.000 C 
ATOM      8  O3  UNL     1       1.318  -2.136   0.754  0.00  0.00    +0.000 OA
BRANCH   7   9
ATOM      9  O4  UNL     1       3.349  -1.091   0.848  0.00  0.00    +0.000 OA
ATOM     10  H8  UNL     1       3.822  -1.951   1.100  0.00  0.00    +0.000 HD
ENDBRANCH   7   9
ENDBRANCH   6   7
BRANCH   1  11
ATOM     11  O2  UNL     1      -0.892  -0.869   0.206  0.00  0.00    +0.000 OA
BRANCH  11  13
ATOM     12  C1  UNL     1      -2.950  -2.258  -0.033  0.00  0.00    +0.000 C 
ATOM     13  C2  UNL     1      -2.075  -1.141  -0.491  0.00  0.00    +0.000 C 
ATOM     14  O1  UNL     1      -2.361  -0.524  -1.553  0.00  0.00    +0.000 OA
ENDBRANCH  11  13
ENDBRANCH   1  11
TORSDOF 4
