REMARK  Name = C:\Users\Bellamkonda Sowmya\Downloads\flask-backend\results\7edda6f4-dff8-4048-9f47-fe76d0f58936_ligand.pdb
REMARK  5 active torsions:
REMARK  status: ('A' for Active; 'I' for Inactive)
REMARK    1  A    between atoms: C1_1  and  C2_2
REMARK    2  A    between atoms: C2_2  and  O2_4
REMARK    3  A    between atoms: O2_4  and  C3_5
REMARK    4  A    between atoms: C8_10  and  C9_11
REMARK    5  A    between atoms: C9_11  and  O4_13
REMARK                            x       y       z     vdW  Elec       q    Type
REMARK                         _______ _______ _______ _____ _____    ______ ____
ROOT
ATOM      1  C3  UNL     1      -0.202  -0.265  -0.092  0.00  0.00    +0.000 A 
ATOM      2  C4  UNL     1      -0.460  -1.638   0.091  0.00  0.00    +0.000 A 
ATOM      3  C5  UNL     1      -1.769  -2.121   0.091  0.00  0.00    +0.000 A 
ATOM      4  C6  UNL     1      -2.836  -1.247  -0.101  0.00  0.00    +0.000 A 
ATOM      5  C7  UNL     1      -2.599   0.113  -0.303  0.00  0.00    +0.000 A 
ATOM      6  C8  UNL     1      -1.285   0.623  -0.308  0.00  0.00    +0.000 A 
ENDROOT
BRANCH   6   7
ATOM      7  C9  UNL     1      -1.071   2.079  -0.527  0.00  0.00    +0.000 C 
ATOM      8  O3  UNL     1      -2.054   2.839  -0.741  0.00  0.00    +0.000 OA
BRANCH   7   9
ATOM      9  O4  UNL     1       0.208   2.628  -0.498  0.00  0.00    +0.000 OA
ATOM     10  H8  UNL     1       0.353   3.620  -0.646  0.00  0.00    +0.000 HD
ENDBRANCH   7   9
ENDBRANCH   6   7
BRANCH   1  11
ATOM     11  O2  UNL     1       1.115   0.222  -0.109  0.00  0.00    +0.000 OA
BRANCH  11  13
ATOM     12  C1  UNL     1       3.572   0.140   0.316  0.00  0.00    +0.000 C 
ATOM     13  C2  UNL     1       2.183  -0.304   0.628  0.00  0.00    +0.000 C 
ATOM     14  O1  UNL     1       1.982  -1.067   1.612  0.00  0.00    +0.000 OA
ENDBRANCH  11  13
ENDBRANCH   1  11
TORSDOF 4
