REMARK  Name = C:\Users\Bellamkonda Sowmya\OneDrive\Documents\backend[1]\backend\results\953b3e85655b48a8a2feec883a25b4c1.pdb
REMARK  6 active torsions:
REMARK  status: ('A' for Active; 'I' for Inactive)
REMARK    1  A    between atoms: C_1  and  C_2
REMARK    2  A    between atoms: C_2  and  N_3
REMARK    3  A    between atoms: N_3  and  C_4
REMARK    4  A    between atoms: N_3  and  C_6
REMARK    5  A    between atoms: C_4  and  C_5
REMARK    6  A    between atoms: C_6  and  C_7
REMARK                            x       y       z     vdW  Elec       q    Type
REMARK                         _______ _______ _______ _____ _____    ______ ____
ROOT
ATOM      1  N   UNL     1       1.117  -2.330  -0.799  0.00  0.00    +0.000 NA
ENDROOT
BRANCH   1   3
ATOM      2  C   UNL     1      -0.880  -0.823  -0.793  0.00  0.00    +0.000 C 
ATOM      3  C   UNL     1       0.618  -0.970  -1.051  0.00  0.00    +0.000 C 
ENDBRANCH   1   3
BRANCH   1   4
ATOM      4  C   UNL     1       0.512  -3.361  -1.659  0.00  0.00    +0.000 C 
ATOM      5  C   UNL     1       0.691  -3.189  -3.165  0.00  0.00    +0.000 C 
ENDBRANCH   1   4
BRANCH   1   6
ATOM      6  C   UNL     1       2.587  -2.406  -0.826  0.00  0.00    +0.000 C 
ATOM      7  C   UNL     1       3.245  -1.631   0.314  0.00  0.00    +0.000 C 
ENDBRANCH   1   6
TORSDOF 3
