REMARK  Name = results/b5655dfe-3858-4f0b-a200-f7e3adc5d934_ligand.pdb
REMARK  6 active torsions:
REMARK  status: ('A' for Active; 'I' for Inactive)
REMARK    1  A    between atoms: C1_1  and  C2_2
REMARK    2  A    between atoms: C2_2  and  N1_3
REMARK    3  A    between atoms: N1_3  and  C3_4
REMARK    4  A    between atoms: N1_3  and  C5_6
REMARK    5  A    between atoms: C3_4  and  C4_5
REMARK    6  A    between atoms: C5_6  and  C6_7
REMARK                            x       y       z     vdW  Elec       q    Type
REMARK                         _______ _______ _______ _____ _____    ______ ____
ROOT
ATOM      1  N1  UNL     1      -0.006  -0.059   0.395  0.00  0.00    +0.000 NA
ENDROOT
BRANCH   1   3
ATOM      2  C1  UNL     1       2.299  -0.971  -0.093  0.00  0.00    +0.000 C 
ATOM      3  C2  UNL     1       1.130  -0.865   0.899  0.00  0.00    +0.000 C 
ENDBRANCH   1   3
BRANCH   1   4
ATOM      4  C3  UNL     1      -0.776  -0.747  -0.669  0.00  0.00    +0.000 C 
ATOM      5  C4  UNL     1      -2.187  -1.032  -0.172  0.00  0.00    +0.000 C 
ENDBRANCH   1   4
BRANCH   1   6
ATOM      6  C5  UNL     1       0.386   1.322   0.041  0.00  0.00    +0.000 C 
ATOM      7  C6  UNL     1      -0.812   2.264   0.117  0.00  0.00    +0.000 C 
ENDBRANCH   1   6
TORSDOF 3
