REMARK  Name = C:\Users\Bellamkonda Sowmya\OneDrive\Desktop\2nd yr notes\ps1\authml\authml\backend\results\ligand_1764924550865.pdb
REMARK  4 active torsions:
REMARK  status: ('A' for Active; 'I' for Inactive)
REMARK    1  A    between atoms: S_2  and  N_4
REMARK    2  A    between atoms: S_2  and  C_21
REMARK    3  A    between atoms: N_4  and  C_5
REMARK    4  A    between atoms: C_9  and  C_10
REMARK                            x       y       z     vdW  Elec       q    Type
REMARK                         _______ _______ _______ _____ _____    ______ ____
ROOT
ATOM      1  C   UNL     1       4.014   1.783   1.529  0.00  0.00    +0.000 A 
ATOM      2  C   UNL     1       5.114   1.026   1.970  0.00  0.00    +0.000 A 
ATOM      3  C   UNL     1       5.822   1.390   3.106  0.00  0.00    +0.000 A 
ATOM      4  C   UNL     1       5.455   2.516   3.810  0.00  0.00    +0.000 A 
ATOM      5  C   UNL     1       4.381   3.213   3.407  0.00  0.00    +0.000 A 
ATOM      6  C   UNL     1       3.933   2.701   2.489  0.00  0.00    +0.000 A 
ENDROOT
BRANCH   5   7
ATOM      7  C   UNL     1       3.848   4.476   4.064  0.00  0.00    +0.000 A 
ATOM      8  C   UNL     1       6.724   5.961   8.261  0.00  0.00    +0.000 A 
ATOM      9  N   UNL     1       6.040   5.648   7.088  0.00  0.00    +0.000 NA
ATOM     10  C   UNL     1       4.800   6.226   6.830  0.00  0.00    +0.000 A 
ATOM     11  C   UNL     1       4.061   7.140   7.603  0.00  0.00    +0.000 A 
ATOM     12  C   UNL     1       2.859   7.657   7.142  0.00  0.00    +0.000 A 
ATOM     13  C   UNL     1       2.384   7.286   5.904  0.00  0.00    +0.000 A 
ATOM     14  C   UNL     1       3.073   6.384   5.186  0.00  0.00    +0.000 A 
ATOM     15  C   UNL     1       3.993   6.064   5.784  0.00  0.00    +0.000 A 
ATOM     16  N   UNL     1       4.454   4.971   5.216  0.00  0.00    +0.000 NA
ENDBRANCH   5   7
BRANCH   1  17
ATOM     17  N   UNL     1       3.169   1.601   0.340  0.00  0.00    +0.000 N 
ATOM     18  H   UNL     1       3.419   2.056  -0.538  0.00  0.00    +0.000 HD
BRANCH  17  20
ATOM     19  O   UNL     1       0.771   1.173   1.480  0.00  0.00    +0.000 OA
ATOM     20  S   UNL     1       1.726   0.598   0.431  0.00  0.00    +0.000 S 
ATOM     21  O   UNL     1       1.033   0.576  -0.933  0.00  0.00    +0.000 OA
BRANCH  20  22
ATOM     22  C   UNL     1       2.192  -1.088   0.899  0.00  0.00    +0.000 A 
ATOM     23  C   UNL     1       2.168  -2.360   1.822  0.00  0.00    +0.000 A 
ATOM     24  C   UNL     1       3.416  -2.620   0.954  0.00  0.00    +0.000 A 
ATOM     25  C   UNL     1       3.416  -2.620   0.954  0.00  0.00    +0.000 A 
ATOM     26  S   UNL     1       3.416  -2.620   0.954  0.00  0.00    +0.000 S 
ENDBRANCH  20  22
ENDBRANCH  17  20
ENDBRANCH   1  17
TORSDOF 4
