REMARK  Name = C:\Users\Bellamkonda Sowmya\OneDrive\Desktop\2nd yr notes\ps1\authml\authml\backend\results\ligand_1764933823886.pdb
REMARK  4 active torsions:
REMARK  status: ('A' for Active; 'I' for Inactive)
REMARK    1  A    between atoms: S_2  and  N_4
REMARK    2  A    between atoms: S_2  and  C_21
REMARK    3  A    between atoms: N_4  and  C_5
REMARK    4  A    between atoms: C_9  and  C_10
REMARK                            x       y       z     vdW  Elec       q    Type
REMARK                         _______ _______ _______ _____ _____    ______ ____
ROOT
ATOM      1  C   UNL     1       3.908   0.295  -2.453  0.00  0.00    +0.000 A 
ATOM      2  C   UNL     1       5.013   1.102  -2.131  0.00  0.00    +0.000 A 
ATOM      3  C   UNL     1       5.765   1.712  -3.125  0.00  0.00    +0.000 A 
ATOM      4  C   UNL     1       5.437   1.517  -4.448  0.00  0.00    +0.000 A 
ATOM      5  C   UNL     1       4.358   0.777  -4.749  0.00  0.00    +0.000 A 
ATOM      6  C   UNL     1       3.872   0.424  -3.776  0.00  0.00    +0.000 A 
ENDROOT
BRANCH   5   7
ATOM      7  C   UNL     1       3.864   0.459  -6.151  0.00  0.00    +0.000 A 
ATOM      8  C   UNL     1       6.849   2.597 -10.047  0.00  0.00    +0.000 A 
ATOM      9  N   UNL     1       6.125   2.001  -9.017  0.00  0.00    +0.000 NA
ATOM     10  C   UNL     1       4.936   1.331  -9.298  0.00  0.00    +0.000 A 
ATOM     11  C   UNL     1       4.290   1.137 -10.532  0.00  0.00    +0.000 A 
ATOM     12  C   UNL     1       3.132   0.379 -10.620  0.00  0.00    +0.000 A 
ATOM     13  C   UNL     1       2.609  -0.206  -9.488  0.00  0.00    +0.000 A 
ATOM     14  C   UNL     1       3.208   0.013  -8.306  0.00  0.00    +0.000 A 
ATOM     15  C   UNL     1       4.104   0.702  -8.472  0.00  0.00    +0.000 A 
ATOM     16  N   UNL     1       4.532   0.977  -7.258  0.00  0.00    +0.000 NA
ENDBRANCH   5   7
BRANCH   1  17
ATOM     17  N   UNL     1       3.063  -0.590  -1.638  0.00  0.00    +0.000 N 
ATOM     18  H   UNL     1       3.313  -1.572  -1.525  0.00  0.00    +0.000 HD
BRANCH  17  20
ATOM     19  O   UNL     1       0.664   0.595  -1.919  0.00  0.00    +0.000 OA
ATOM     20  S   UNL     1       1.620   0.046  -0.856  0.00  0.00    +0.000 S 
ATOM     21  O   UNL     1       0.927  -1.073  -0.076  0.00  0.00    +0.000 OA
BRANCH  20  22
ATOM     22  C   UNL     1       2.085   1.376   0.280  0.00  0.00    +0.000 A 
ATOM     23  C   UNL     1       1.808   2.503   1.340  0.00  0.00    +0.000 A 
ATOM     24  C   UNL     1       3.341   2.573   1.196  0.00  0.00    +0.000 A 
ATOM     25  C   UNL     1       3.341   2.573   1.196  0.00  0.00    +0.000 A 
ATOM     26  S   UNL     1       3.341   2.573   1.196  0.00  0.00    +0.000 S 
ENDBRANCH  20  22
ENDBRANCH  17  20
ENDBRANCH   1  17
TORSDOF 4
