REMARK  Name = C:\DDRIVE\PROJECT\authml\backend\results\ligand_1764475330698.pdb
REMARK  3 active torsions:
REMARK  status: ('A' for Active; 'I' for Inactive)
REMARK    1  A    between atoms: C_1  and  N_2
REMARK    2  A    between atoms: C_4  and  C_5
REMARK    3  A    between atoms: C_5  and  O_7
REMARK                            x       y       z     vdW  Elec       q    Type
REMARK                         _______ _______ _______ _____ _____    ______ ____
ROOT
ATOM      1  C   UNL     1    23295128243458862144738774045345816990291302475228204595734781432949787847577279345864173253093221287999218949385156623680535347091885913143126966740239861618353111040.00097502963004893592407535315634134341513846772597050895180723059792063574842629698994814609669137166380506559527201906223956985003517594855508566005011303512980748354276297471652127056734166560368754688.000   0.000  0.00  0.00    +0.000 C 
ATOM      2  N   UNL     1      -0.00061996245903764006579653610042780139249779368880398448648765680930685556828542233342168278792551873624045357869941768985502789371642471097205024580888084328004775036240687377712530982762002428145737910325761229716769560592384.0001718892.396  0.00  0.00    +0.000 N 
ATOM      3  C   UNL     1       0.000   0.000   1.000  0.00  0.00    +0.000 C 
ATOM      4  C   UNL     1       0.000   0.000358373784518020628480.000  0.00  0.00    +0.000 C 
ATOM      5  C   UNL     1       1.000  -0.000   0.000  0.00  0.00    +0.000 C 
ATOM      6  C   UNL     1       0.183  -1.300   0.088  0.00  0.00    +0.000 C 
ATOM      7  O   UNL     1       1.513  -0.002  -0.032  0.00  0.00    +0.000 OA
ENDROOT
BRANCH   4   8
ATOM      8  C   UNL     1      -0.000   0.680358373784518020628480.000  0.00  0.00    +0.000 C 
ATOM      9  O   UNL     1       0.550   1.315358373784518020628480.000  0.00  0.00    +0.000 OA
BRANCH   8  10
ATOM     10  O   UNL     1      -0.615   1.390358373784518020628480.000  0.00  0.00    +0.000 OA
ATOM     11  H   UNL     1      -0.614   2.390358373784518020628480.000  0.00  0.00    +0.000 HD
ENDBRANCH   8  10
ENDBRANCH   4   8
TORSDOF 2
