REMARK  Name = C:\DDRIVE\PROJECT\RMPRF\authml\backend\results\ligand_1764578376395.pdb
REMARK  5 active torsions:
REMARK  status: ('A' for Active; 'I' for Inactive)
REMARK    1  A    between atoms: C_2  and  O_3
REMARK    2  A    between atoms: C_2  and  C_4
REMARK    3  A    between atoms: C_4  and  O_5
REMARK    4  A    between atoms: O_5  and  C_6
REMARK    5  A    between atoms: C_9  and  C_10
REMARK                            x       y       z     vdW  Elec       q    Type
REMARK                         _______ _______ _______ _____ _____    ______ ____
ROOT
ATOM      1  C   UNL     1       2.977  -2.899   0.467  0.00  0.00    +0.000 A 
ATOM      2  C   UNL     1       2.706  -2.404   1.755  0.00  0.00    +0.000 A 
ATOM      3  C   UNL     1       3.074  -3.117   2.886  0.00  0.00    +0.000 A 
ATOM      4  C   UNL     1       3.701  -4.336   2.753  0.00  0.00    +0.000 A 
ATOM      5  C   UNL     1       3.992  -4.787   1.522  0.00  0.00    +0.000 A 
ATOM      6  C   UNL     1       3.644  -4.014   0.756  0.00  0.00    +0.000 A 
ENDROOT
BRANCH   4   7
ATOM      7  C   UNL     1       4.059  -5.157   3.981  0.00  0.00    +0.000 C 
ATOM      8  C   UNL     1       3.354  -5.899   4.407  0.00  0.00    +0.000 C 
ATOM      9  C   UNL     1       3.354  -5.899   4.407  0.00  0.00    +0.000 C 
ATOM     10  C   UNL     1       3.354  -5.899   4.407  0.00  0.00    +0.000 C 
ATOM     11  C   UNL     1       3.354  -5.899   4.407  0.00  0.00    +0.000 C 
ATOM     12  C   UNL     1       3.354  -5.899   4.407  0.00  0.00    +0.000 C 
ENDBRANCH   4   7
BRANCH   1  13
ATOM     13  O   UNL     1       2.728  -2.248  -0.770  0.00  0.00    +0.000 OA
BRANCH  13  14
ATOM     14  C   UNL     1       2.766  -0.831  -0.847  0.00  0.00    +0.000 C 
BRANCH  14  16
ATOM     15  O   UNL     1       2.450   0.845  -2.565  0.00  0.00    +0.000 OA
ATOM     16  C   UNL     1       2.466  -0.392  -2.271  0.00  0.00    +0.000 C 
BRANCH  16  17
ATOM     17  O   UNL     1       2.203  -1.363  -3.273  0.00  0.00    +0.000 OA
ATOM     18  H   UNL     1       2.216  -2.336  -3.041  0.00  0.00    +0.000 HD
ENDBRANCH  16  17
ENDBRANCH  14  16
ENDBRANCH  13  14
ENDBRANCH   1  13
TORSDOF 5
