REMARK  Name = C:\DDRIVE\PROJECT\authml\backend\results\ligand_1764478299743.pdb
REMARK  6 active torsions:
REMARK  status: ('A' for Active; 'I' for Inactive)
REMARK    1  A    between atoms: C_1  and  C_2
REMARK    2  A    between atoms: C_2  and  N_3
REMARK    3  A    between atoms: N_3  and  C_4
REMARK    4  A    between atoms: N_3  and  C_6
REMARK    5  A    between atoms: C_4  and  C_5
REMARK    6  A    between atoms: C_6  and  C_7
REMARK                            x       y       z     vdW  Elec       q    Type
REMARK                         _______ _______ _______ _____ _____    ______ ____
ROOT
ATOM      1  N   UNL     1       1.018   1.929   1.630  0.00  0.00    +0.000 NA
ENDROOT
BRANCH   1   3
ATOM      2  C   UNL     1      -0.983   0.544   1.044  0.00  0.00    +0.000 C 
ATOM      3  C   UNL     1       0.515   0.576   1.342  0.00  0.00    +0.000 C 
ENDBRANCH   1   3
BRANCH   1   4
ATOM      4  C   UNL     1       0.411   2.551   2.821  0.00  0.00    +0.000 C 
ATOM      5  C   UNL     1       0.577   1.808   4.144  0.00  0.00    +0.000 C 
ENDBRANCH   1   4
BRANCH   1   6
ATOM      6  C   UNL     1       2.483   1.993   1.678  0.00  0.00    +0.000 C 
ATOM      7  C   UNL     1       3.139   1.711   0.326  0.00  0.00    +0.000 C 
ENDBRANCH   1   6
TORSDOF 3
