REMARK  Name = C:\Users\Bellamkonda Sowmya\OneDrive\Desktop\LIGBIND AI\authml\authml\backend\results\ligand_1764954561646.pdb
REMARK  4 active torsions:
REMARK  status: ('A' for Active; 'I' for Inactive)
REMARK    1  A    between atoms: S_2  and  N_4
REMARK    2  A    between atoms: S_2  and  C_21
REMARK    3  A    between atoms: N_4  and  C_5
REMARK    4  A    between atoms: C_9  and  C_10
REMARK                            x       y       z     vdW  Elec       q    Type
REMARK                         _______ _______ _______ _____ _____    ______ ____
ROOT
ATOM      1  C   UNL     1       4.007  -1.613   1.665  0.00  0.00    +0.000 A 
ATOM      2  C   UNL     1       5.107  -2.023   0.890  0.00  0.00    +0.000 A 
ATOM      3  C   UNL     1       5.828  -3.161   1.218  0.00  0.00    +0.000 A 
ATOM      4  C   UNL     1       5.475  -3.898   2.326  0.00  0.00    +0.000 A 
ATOM      5  C   UNL     1       4.402  -3.525   3.041  0.00  0.00    +0.000 A 
ATOM      6  C   UNL     1       3.942  -2.598   2.556  0.00  0.00    +0.000 A 
ENDROOT
BRANCH   5   7
ATOM      7  C   UNL     1       3.883  -4.221   4.289  0.00  0.00    +0.000 A 
ATOM      8  C   UNL     1       6.744  -8.505   5.789  0.00  0.00    +0.000 A 
ATOM      9  N   UNL     1       6.091  -7.318   5.466  0.00  0.00    +0.000 NA
ATOM     10  C   UNL     1       4.836  -7.045   6.005  0.00  0.00    +0.000 A 
ATOM     11  C   UNL     1       4.053  -7.816   6.883  0.00  0.00    +0.000 A 
ATOM     12  C   UNL     1       2.842  -7.341   7.364  0.00  0.00    +0.000 A 
ATOM     13  C   UNL     1       2.400  -6.091   6.991  0.00  0.00    +0.000 A 
ATOM     14  C   UNL     1       3.132  -5.375   6.122  0.00  0.00    +0.000 A 
ATOM     15  C   UNL     1       4.053  -5.985   5.827  0.00  0.00    +0.000 A 
ATOM     16  N   UNL     1       4.501  -5.383   4.747  0.00  0.00    +0.000 NA
ENDBRANCH   5   7
BRANCH   1  17
ATOM     17  N   UNL     1       3.162  -0.419   1.524  0.00  0.00    +0.000 N 
ATOM     18  H   UNL     1       3.412   0.443   2.009  0.00  0.00    +0.000 HD
BRANCH  17  20
ATOM     19  O   UNL     1       0.764  -1.543   1.056  0.00  0.00    +0.000 OA
ATOM     20  S   UNL     1       1.719  -0.475   0.518  0.00  0.00    +0.000 S 
ATOM     21  O   UNL     1       1.026   0.889   0.543  0.00  0.00    +0.000 OA
BRANCH  20  22
ATOM     22  C   UNL     1       2.185  -0.885  -1.183  0.00  0.00    +0.000 A 
ATOM     23  C   UNL     1       1.756  -1.153  -2.671  0.00  0.00    +0.000 A 
ATOM     24  C   UNL     1       3.292  -1.098  -2.788  0.00  0.00    +0.000 A 
ATOM     25  C   UNL     1       3.292  -1.098  -2.788  0.00  0.00    +0.000 A 
ATOM     26  S   UNL     1       3.292  -1.098  -2.788  0.00  0.00    +0.000 S 
ENDBRANCH  20  22
ENDBRANCH  17  20
ENDBRANCH   1  17
TORSDOF 4
