REMARK  Name = C:\DDRIVE\PROJECT\RMPRF\authml\backend\results\ligand_1764562464556.pdb
REMARK  6 active torsions:
REMARK  status: ('A' for Active; 'I' for Inactive)
REMARK    1  A    between atoms: C_1  and  C_2
REMARK    2  A    between atoms: C_2  and  N_3
REMARK    3  A    between atoms: N_3  and  C_4
REMARK    4  A    between atoms: N_3  and  C_6
REMARK    5  A    between atoms: C_4  and  C_5
REMARK    6  A    between atoms: C_6  and  C_7
REMARK                            x       y       z     vdW  Elec       q    Type
REMARK                         _______ _______ _______ _____ _____    ______ ____
ROOT
ATOM      1  N   UNL     1       1.074  -1.509   1.884  0.00  0.00    +0.000 NA
ENDROOT
BRANCH   1   3
ATOM      2  C   UNL     1      -0.920  -1.018   0.454  0.00  0.00    +0.000 C 
ATOM      3  C   UNL     1       0.578  -1.304   0.513  0.00  0.00    +0.000 C 
ENDBRANCH   1   3
BRANCH   1   4
ATOM      4  C   UNL     1       0.466  -2.658   2.576  0.00  0.00    +0.000 C 
ATOM      5  C   UNL     1       0.642  -4.024   1.921  0.00  0.00    +0.000 C 
ENDBRANCH   1   4
BRANCH   1   6
ATOM      6  C   UNL     1       2.542  -1.561   1.951  0.00  0.00    +0.000 C 
ATOM      7  C   UNL     1       3.206  -0.233   1.587  0.00  0.00    +0.000 C 
ENDBRANCH   1   6
TORSDOF 3
