REMARK  Name = C:\Users\Bellamkonda Sowmya\OneDrive\Documents\backend[1]\backend\results\ligand_1764364795079.pdb
REMARK  6 active torsions:
REMARK  status: ('A' for Active; 'I' for Inactive)
REMARK    1  A    between atoms: C_1  and  C_2
REMARK    2  A    between atoms: C_2  and  N_3
REMARK    3  A    between atoms: N_3  and  C_4
REMARK    4  A    between atoms: N_3  and  C_6
REMARK    5  A    between atoms: C_4  and  C_5
REMARK    6  A    between atoms: C_6  and  C_7
REMARK                            x       y       z     vdW  Elec       q    Type
REMARK                         _______ _______ _______ _____ _____    ______ ____
ROOT
ATOM      1  N   UNL     1       0.972   0.561   2.309  0.00  0.00    +0.000 NA
ENDROOT
BRANCH   1   3
ATOM      2  C   UNL     1      -1.023  -0.195   1.001  0.00  0.00    +0.000 C 
ATOM      3  C   UNL     1       0.475  -0.338   1.256  0.00  0.00    +0.000 C 
ENDBRANCH   1   3
BRANCH   1   4
ATOM      4  C   UNL     1       0.365   0.329   3.632  0.00  0.00    +0.000 C 
ATOM      5  C   UNL     1       0.543  -1.064   4.233  0.00  0.00    +0.000 C 
ENDBRANCH   1   4
BRANCH   1   6
ATOM      6  C   UNL     1       2.442   0.577   2.390  0.00  0.00    +0.000 C 
ATOM      7  C   UNL     1       3.102   1.176   1.150  0.00  0.00    +0.000 C 
ENDBRANCH   1   6
TORSDOF 3
