REMARK  Name = C:\DDRIVE\PROJECT\RMPRF\authml\backend\results\ligand_1764561218313.pdb
REMARK  10 active torsions:
REMARK  status: ('A' for Active; 'I' for Inactive)
REMARK    1  A    between atoms: C_1  and  C_2
REMARK    2  A    between atoms: C_2  and  C_3
REMARK    3  A    between atoms: C_3  and  C_4
REMARK    4  A    between atoms: C_4  and  N_5
REMARK    5  A    between atoms: N_5  and  C_6
REMARK    6  A    between atoms: N_5  and  C_8
REMARK    7  A    between atoms: C_6  and  C_7
REMARK    8  A    between atoms: C_9  and  N_10
REMARK    9  A    between atoms: C_14  and  C_15
REMARK   10  A    between atoms: C_20  and  N_21
REMARK                            x       y       z     vdW  Elec       q    Type
REMARK                         _______ _______ _______ _____ _____    ______ ____
ROOT
ATOM      1  C   UNL     1      -2.037   0.535   1.615  0.00  0.00    +0.000 A 
ATOM      2  C   UNL     1      -1.592   0.324   0.262  0.00  0.00    +0.000 A 
ATOM      3  C   UNL     1      -2.379  -0.239  -0.789  0.00  0.00    +0.000 A 
ATOM      4  C   UNL     1      -3.668  -0.695  -0.566  0.00  0.00    +0.000 A 
ATOM      5  C   UNL     1      -4.156  -0.551   0.721  0.00  0.00    +0.000 A 
ATOM      6  C   UNL     1      -3.393   0.082   1.749  0.00  0.00    +0.000 A 
ENDROOT
BRANCH   4   7
ATOM      7  C   UNL     1      -4.505  -1.317  -1.650  0.00  0.00    +0.000 C 
ATOM      8  F   UNL     1      -3.974  -1.167  -2.892  0.00  0.00    +0.000 F 
ATOM      9  F   UNL     1      -4.679  -2.650  -1.472  0.00  0.00    +0.000 F 
ATOM     10  F   UNL     1      -5.753  -0.777  -1.705  0.00  0.00    +0.000 F 
ENDBRANCH   4   7
BRANCH   2  11
ATOM     11  N   UNL     1      -0.278   0.669  -0.256  0.00  0.00    +0.000 N 
ATOM     12  O   UNL     1       0.621  -0.174  -0.101  0.00  0.00    +0.000 OA
ATOM     13  O   UNL     1      -0.195   1.690  -0.949  0.00  0.00    +0.000 OA
ENDBRANCH   2  11
BRANCH   6  14
ATOM     14  N   UNL     1      -4.228   0.282   2.920  0.00  0.00    +0.000 N 
ATOM     15  O   UNL     1      -4.733   1.403   3.062  0.00  0.00    +0.000 OA
ATOM     16  O   UNL     1      -4.512  -0.724   3.588  0.00  0.00    +0.000 OA
ENDBRANCH   6  14
BRANCH   1  17
ATOM     17  N   UNL     1      -1.257   1.073   2.661  0.00  0.00    +0.000 N 
BRANCH  17  18
ATOM     18  C   UNL     1      -1.816   1.605   3.934  0.00  0.00    +0.000 C 
ATOM     19  C   UNL     1      -1.989   0.540   5.009  0.00  0.00    +0.000 C 
ENDBRANCH  17  18
BRANCH  17  20
ATOM     20  C   UNL     1       0.184   1.435   2.546  0.00  0.00    +0.000 C 
BRANCH  20  21
ATOM     21  C   UNL     1       0.343   2.841   1.951  0.00  0.00    +0.000 C 
BRANCH  21  23
ATOM     22  C   UNL     1       2.658   3.428   2.811  0.00  0.00    +0.000 C 
ATOM     23  C   UNL     1       1.783   3.205   1.589  0.00  0.00    +0.000 C 
ENDBRANCH  21  23
ENDBRANCH  20  21
ENDBRANCH  17  20
ENDBRANCH   1  17
TORSDOF 8
