REMARK  Name = C:\DDRIVE\PROJECT\authml\backend\results\ligand_1764475418314.pdb
REMARK  2 active torsions:
REMARK  status: ('A' for Active; 'I' for Inactive)
REMARK    1  A    between atoms: N_7  and  C_8
REMARK    2  A    between atoms: C_11  and  N_12
REMARK                            x       y       z     vdW  Elec       q    Type
REMARK                         _______ _______ _______ _____ _____    ______ ____
ROOT
ATOM      1  N   UNL     1      -1.125  -2.446  -5.546  0.00  0.00    +0.000 NA
ATOM      2  C   UNL     1      -1.782  -1.814  -4.598  0.00  0.00    +0.000 C 
ATOM      3  N   UNL     1      -3.252  -1.815  -4.597  0.00  0.00    +0.000 N 
ATOM      4  N   UNL     1      -1.047  -1.106  -3.540  0.00  0.00    +0.000 N 
ATOM      5  C   UNL     1      -1.782  -0.398  -2.482  0.00  0.00    +0.000 C 
ATOM      6  O   UNL     1      -3.053  -0.399  -2.481  0.00  0.00    +0.000 OA
ATOM      7  N   UNL     1      -1.047   0.311  -1.425  0.00  0.00    +0.000 N 
ATOM      8  H   UNL     1      -1.635  -2.937  -6.280  0.00  0.00    +0.000 HD
ATOM      9  H   UNL     1      -3.762  -1.325  -3.862  0.00  0.00    +0.000 HD
ATOM     10  H   UNL     1      -3.762  -2.306  -5.331  0.00  0.00    +0.000 HD
ATOM     11  H   UNL     1      -0.027  -1.106  -3.540  0.00  0.00    +0.000 HD
ATOM     12  H   UNL     1      -1.557   0.803  -0.691  0.00  0.00    +0.000 HD
ENDROOT
BRANCH   7  13
ATOM     13  C   UNL     1       0.423   0.311  -1.425  0.00  0.00    +0.000 A 
ATOM     14  C   UNL     1      -0.810  -0.477  -0.896  0.00  0.00    +0.000 A 
ATOM     15  C   UNL     1       1.475  -0.566  -1.809  0.00  0.00    +0.000 A 
ATOM     16  C   UNL     1       1.442   1.150  -1.922  0.00  0.00    +0.000 A 
ATOM     17  C   UNL     1       1.294   0.387  -0.389  0.00  0.00    +0.000 A 
ATOM     18 CL   UNL     1       1.064   0.315  -1.411  0.00  0.00    +0.000 Cl
ATOM     19  C   UNL     1       0.423   0.311  -1.425  0.00  0.00    +0.000 A 
BRANCH  16  20
ATOM     20  N   UNL     1       1.498   2.374  -2.735  0.00  0.00    +0.000 N 
ATOM     21  O   UNL     1       1.632   2.296  -3.952  0.00  0.00    +0.000 OA
ATOM     22  O   UNL     1       1.402   3.601  -2.134  0.00  0.00    +0.000 OA
ENDBRANCH  16  20
ENDBRANCH   7  13
TORSDOF 2
