REMARK  Name = C:\Users\Bellamkonda Sowmya\OneDrive\Desktop\LIGBIND AI\authml\authml\backend\results\ligand_1765610270828.pdb
REMARK  6 active torsions:
REMARK  status: ('A' for Active; 'I' for Inactive)
REMARK    1  A    between atoms: C_1  and  C_2
REMARK    2  A    between atoms: C_2  and  N_3
REMARK    3  A    between atoms: N_3  and  C_4
REMARK    4  A    between atoms: N_3  and  C_6
REMARK    5  A    between atoms: C_4  and  C_5
REMARK    6  A    between atoms: C_6  and  C_7
REMARK                            x       y       z     vdW  Elec       q    Type
REMARK                         _______ _______ _______ _____ _____    ______ ____
ROOT
ATOM      1  N   UNL     1       1.066   0.536   2.330  0.00  0.00    +0.000 NA
ENDROOT
BRANCH   1   3
ATOM      2  C   UNL     1      -0.934  -0.279   1.064  0.00  0.00    +0.000 C 
ATOM      3  C   UNL     1       0.565  -0.410   1.322  0.00  0.00    +0.000 C 
ENDBRANCH   1   3
BRANCH   1   4
ATOM      4  C   UNL     1       0.456   0.371   3.662  0.00  0.00    +0.000 C 
ATOM      5  C   UNL     1       0.629  -0.990   4.330  0.00  0.00    +0.000 C 
ENDBRANCH   1   4
BRANCH   1   6
ATOM      6  C   UNL     1       2.533   0.553   2.412  0.00  0.00    +0.000 C 
ATOM      7  C   UNL     1       3.197   1.085   1.143  0.00  0.00    +0.000 C 
ENDBRANCH   1   6
TORSDOF 3
