REMARK  Name = C:\DDRIVE\PROJECT\authml\backend\results\ligand_1764478627699.pdb
REMARK  4 active torsions:
REMARK  status: ('A' for Active; 'I' for Inactive)
REMARK    1  A    between atoms: C_1  and  C_2
REMARK    2  A    between atoms: C_2  and  O_3
REMARK    3  A    between atoms: O_3  and  P_4
REMARK    4  A    between atoms: P_4  and  C_5
REMARK                            x       y       z     vdW  Elec       q    Type
REMARK                         _______ _______ _______ _____ _____    ______ ____
ROOT
ATOM      1  P   UNL     1       2.572  -1.731   1.704  0.00  0.00    +0.000 P 
ATOM      2  C   UNL     1       2.810  -3.514   1.599  0.00  0.00    +0.000 C 
ATOM      3  O   UNL     1       3.324  -1.051   0.589  0.00  0.00    +0.000 OA
ATOM      4  H   UNL     1       2.703  -1.269   3.031  0.00  0.00    +0.000 HD
ENDROOT
BRANCH   1   5
ATOM      5  O   UNL     1       0.963  -1.616   1.470  0.00  0.00    +0.000 OA
BRANCH   5   7
ATOM      6  C   UNL     1      -1.014  -1.510   0.127  0.00  0.00    +0.000 C 
ATOM      7  C   UNL     1       0.498  -1.583   0.126  0.00  0.00    +0.000 C 
ENDBRANCH   5   7
ENDBRANCH   1   5
TORSDOF 2
