REMARK  Name = C:\DDRIVE\PROJECT\RMPRF\authml\backend\results\ligand_1764561098307.pdb
REMARK  10 active torsions:
REMARK  status: ('A' for Active; 'I' for Inactive)
REMARK    1  A    between atoms: C1_1  and  C2_2
REMARK    2  A    between atoms: C2_2  and  O2_4
REMARK    3  A    between atoms: O2_4  and  C3_5
REMARK    4  A    between atoms: C3_5  and  C4_6
REMARK    5  A    between atoms: C4_6  and  C5_8
REMARK    6  A    between atoms: C5_8  and  O4_9
REMARK    7  A    between atoms: C6_10  and  C7_11
REMARK    8  A    between atoms: C18_23  and  C19_24
REMARK    9  A    between atoms: C21_27  and  O6_28
REMARK   10  A    between atoms: C23_30  and  C24_31
REMARK                            x       y       z     vdW  Elec       q    Type
REMARK                         _______ _______ _______ _____ _____    ______ ____
ROOT
ATOM      1  C5  UNL     1       1.950   1.820  -0.765  0.00  0.00    +0.000 C 
ATOM      2  C6  UNL     1       1.121   0.748  -1.583  0.00  0.00    +0.000 C 
ATOM      3  C7  UNL     1       0.945  -0.615  -0.909  0.00  0.00    +0.000 C 
ATOM      4  C8  UNL     1      -0.275   1.367  -1.800  0.00  0.00    +0.000 C 
ATOM      5  C9  UNL     1      -0.337   2.437  -0.717  0.00  0.00    +0.000 C 
ATOM      6  C10 UNL     1      -1.603   3.287  -0.685  0.00  0.00    +0.000 C 
ATOM      7  C11 UNL     1      -2.737   2.329  -0.197  0.00  0.00    +0.000 C 
ATOM      8  C12 UNL     1      -3.542   2.838   0.975  0.00  0.00    +0.000 C 
ATOM      9  C13 UNL     1      -3.874   4.250   0.622  0.00  0.00    +0.000 C 
ATOM     10  C14 UNL     1      -5.059   4.546   0.065  0.00  0.00    +0.000 C 
ATOM     11  C15 UNL     1      -5.327   5.880  -0.498  0.00  0.00    +0.000 C 
ATOM     12  O5  UNL     1      -6.384   6.130  -1.060  0.00  0.00    +0.000 OA
ATOM     13  C16 UNL     1      -4.244   6.882  -0.403  0.00  0.00    +0.000 C 
ATOM     14  C17 UNL     1      -3.075   6.585   0.179  0.00  0.00    +0.000 C 
ATOM     15  C18 UNL     1      -2.713   5.230   0.790  0.00  0.00    +0.000 C 
ATOM     16  C19 UNL     1      -2.589   5.489   2.314  0.00  0.00    +0.000 C 
ATOM     17  C20 UNL     1      -1.386   4.634   0.100  0.00  0.00    +0.000 C 
ATOM     18  F1  UNL     1      -1.028   5.544  -0.897  0.00  0.00    +0.000 F 
ATOM     19  C21 UNL     1      -0.114   4.603   1.003  0.00  0.00    +0.000 C 
ATOM     20  C22 UNL     1       1.201   4.149   0.323  0.00  0.00    +0.000 C 
ATOM     21  C23 UNL     1       1.031   3.117  -0.811  0.00  0.00    +0.000 C 
ATOM     22  C24 UNL     1       1.260   3.896  -2.140  0.00  0.00    +0.000 C 
ENDROOT
BRANCH   1  23
ATOM     23  C4  UNL     1       2.247   1.350   0.704  0.00  0.00    +0.000 C 
ATOM     24  O3  UNL     1       1.406   1.440   1.605  0.00  0.00    +0.000 OA
BRANCH  23  25
ATOM     25  C3  UNL     1       3.597   0.701   0.986  0.00  0.00    +0.000 C 
BRANCH  25  26
ATOM     26  O2  UNL     1       4.059   1.135   2.270  0.00  0.00    +0.000 OA
BRANCH  26  28
ATOM     27  C1  UNL     1       4.340   0.878   4.586  0.00  0.00    +0.000 C 
ATOM     28  C2  UNL     1       3.929   0.246   3.284  0.00  0.00    +0.000 C 
ATOM     29  O1  UNL     1       3.578  -0.920   3.171  0.00  0.00    +0.000 OA
ENDBRANCH  26  28
ENDBRANCH  25  26
ENDBRANCH  23  25
ENDBRANCH   1  23
BRANCH   1  30
ATOM     30  O4  UNL     1       3.169   2.094  -1.453  0.00  0.00    +0.000 OA
ATOM     31  H6  UNL     1       3.500   1.272  -1.857  0.00  0.00    +0.000 HD
ENDBRANCH   1  30
BRANCH  19  32
ATOM     32  O6  UNL     1       0.157   5.918   1.514  0.00  0.00    +0.000 OA
ATOM     33  H26 UNL     1       0.228   6.504   0.735  0.00  0.00    +0.000 HD
ENDBRANCH  19  32
TORSDOF 6
