REMARK  Name = C:\Users\Bellamkonda Sowmya\OneDrive\Desktop\LIGBIND AI\authml\authml\backend\results\ligand_1766683046881.pdb
REMARK  6 active torsions:
REMARK  status: ('A' for Active; 'I' for Inactive)
REMARK    1  A    between atoms: C_1  and  C_2
REMARK    2  A    between atoms: C_2  and  N_3
REMARK    3  A    between atoms: N_3  and  C_4
REMARK    4  A    between atoms: N_3  and  C_6
REMARK    5  A    between atoms: C_4  and  C_5
REMARK    6  A    between atoms: C_6  and  C_7
REMARK                            x       y       z     vdW  Elec       q    Type
REMARK                         _______ _______ _______ _____ _____    ______ ____
ROOT
ATOM      1  N   UNL     1       0.978   2.228   0.746  0.00  0.00    +0.000 NA
ENDROOT
BRANCH   1   3
ATOM      2  C   UNL     1      -1.018   0.718   0.717  0.00  0.00    +0.000 C 
ATOM      3  C   UNL     1       0.477   0.865   0.977  0.00  0.00    +0.000 C 
ENDBRANCH   1   3
BRANCH   1   4
ATOM      4  C   UNL     1       0.370   3.245   1.625  0.00  0.00    +0.000 C 
ATOM      5  C   UNL     1       0.542   3.046   3.127  0.00  0.00    +0.000 C 
ENDBRANCH   1   4
BRANCH   1   6
ATOM      6  C   UNL     1       2.447   2.308   0.774  0.00  0.00    +0.000 C 
ATOM      7  C   UNL     1       3.107   1.553  -0.377  0.00  0.00    +0.000 C 
ENDBRANCH   1   6
TORSDOF 3
