REMARK  Name = C:\Users\Bellamkonda Sowmya\OneDrive\Desktop\LIGBIND AI\authml\authml\backend\results\ligand_1765167365485.pdb
REMARK  4 active torsions:
REMARK  status: ('A' for Active; 'I' for Inactive)
REMARK    1  A    between atoms: S_2  and  N_4
REMARK    2  A    between atoms: S_2  and  C_21
REMARK    3  A    between atoms: N_4  and  C_5
REMARK    4  A    between atoms: C_9  and  C_10
REMARK                            x       y       z     vdW  Elec       q    Type
REMARK                         _______ _______ _______ _____ _____    ______ ____
ROOT
ATOM      1  C   UNL     1       4.041  -0.585   2.311  0.00  0.00    +0.000 A 
ATOM      2  C   UNL     1       5.130  -1.303   1.785  0.00  0.00    +0.000 A 
ATOM      3  C   UNL     1       5.846  -2.193   2.572  0.00  0.00    +0.000 A 
ATOM      4  C   UNL     1       5.499  -2.370   3.893  0.00  0.00    +0.000 A 
ATOM      5  C   UNL     1       4.435  -1.712   4.381  0.00  0.00    +0.000 A 
ATOM      6  C   UNL     1       3.977  -1.084   3.543  0.00  0.00    +0.000 A 
ENDROOT
BRANCH   5   7
ATOM      7  C   UNL     1       3.925  -1.790   5.810  0.00  0.00    +0.000 A 
ATOM      8  C   UNL     1       6.792  -5.034   8.934  0.00  0.00    +0.000 A 
ATOM      9  N   UNL     1       6.106  -4.128   8.129  0.00  0.00    +0.000 NA
ATOM     10  C   UNL     1       4.910  -3.569   8.572  0.00  0.00    +0.000 A 
ATOM     11  C   UNL     1       4.221  -3.774   9.781  0.00  0.00    +0.000 A 
ATOM     12  C   UNL     1       3.062  -3.069  10.071  0.00  0.00    +0.000 A 
ATOM     13  C   UNL     1       2.582  -2.142   9.173  0.00  0.00    +0.000 A 
ATOM     14  C   UNL     1       3.221  -1.978   8.003  0.00  0.00    +0.000 A 
ATOM     15  C   UNL     1       4.109  -2.696   7.966  0.00  0.00    +0.000 A 
ATOM     16  N   UNL     1       4.551  -2.628   6.729  0.00  0.00    +0.000 NA
ENDBRANCH   5   7
BRANCH   1  17
ATOM     17  N   UNL     1       3.195   0.363   1.571  0.00  0.00    +0.000 N 
ATOM     18  H   UNL     1       3.445   1.351   1.539  0.00  0.00    +0.000 HD
BRANCH  17  20
ATOM     19  O   UNL     1       0.797  -0.841   1.755  0.00  0.00    +0.000 OA
ATOM     20  S   UNL     1       1.752  -0.208   0.741  0.00  0.00    +0.000 S 
ATOM     21  O   UNL     1       1.059   0.971   0.054  0.00  0.00    +0.000 OA
BRANCH  20  22
ATOM     22  C   UNL     1       2.218  -1.440  -0.501  0.00  0.00    +0.000 A 
ATOM     23  C   UNL     1       1.901  -2.469  -1.646  0.00  0.00    +0.000 A 
ATOM     24  C   UNL     1       3.435  -2.576  -1.538  0.00  0.00    +0.000 A 
ATOM     25  C   UNL     1       3.435  -2.576  -1.538  0.00  0.00    +0.000 A 
ATOM     26  S   UNL     1       3.435  -2.576  -1.538  0.00  0.00    +0.000 S 
ENDBRANCH  20  22
ENDBRANCH  17  20
ENDBRANCH   1  17
TORSDOF 4
