REMARK  Name = C:\DDRIVE\PROJECT\authml\backend\results\ligand_1764476476305.pdb
REMARK  6 active torsions:
REMARK  status: ('A' for Active; 'I' for Inactive)
REMARK    1  A    between atoms: C_9  and  SE_10
REMARK    2  A    between atoms: SE_10  and  C_11
REMARK    3  A    between atoms: C_11  and  C_12
REMARK    4  A    between atoms: N_18  and  C_19
REMARK    5  A    between atoms: P_24  and  O_26
REMARK    6  A    between atoms: C_29  and  O_30
REMARK                            x       y       z     vdW  Elec       q    Type
REMARK                         _______ _______ _______ _____ _____    ______ ____
ROOT
ATOM      1  N   UNL     1       1.134   0.242  -0.289  0.00  0.00    +0.000 N 
ATOM      2  C   UNL     1       0.426  -0.976  -0.200  0.00  0.00    +0.000 A 
ATOM      3  N   UNL     1       0.870  -1.967   0.630  0.00  0.00    +0.000 NA
ATOM      4  C   UNL     1       0.194  -3.152   0.750  0.00  0.00    +0.000 A 
ATOM      5  N   UNL     1      -0.954  -3.359   0.047  0.00  0.00    +0.000 NA
ATOM      6  C   UNL     1      -1.396  -2.382  -0.783  0.00  0.00    +0.000 A 
ATOM      7  C   UNL     1      -0.740  -1.215  -0.931  0.00  0.00    +0.000 A 
ATOM      8  N   UNL     1      -1.383  -0.439  -1.825  0.00  0.00    +0.000 NA
ATOM      9  C   UNL     1      -2.455  -1.192  -2.203  0.00  0.00    +0.000 A 
ATOM     10  N   UNL     1      -2.494  -2.398  -1.564  0.00  0.00    +0.000 N 
ATOM     11  H   UNL     1       0.798   1.005  -0.893  0.00  0.00    +0.000 HD
ATOM     12  H   UNL     1       1.976   0.387   0.286  0.00  0.00    +0.000 HD
ENDROOT
BRANCH  10  13
ATOM     13  C   UNL     1      -3.476  -3.490  -1.624  0.00  0.00    +0.000 C 
ATOM     14  O   UNL     1      -4.006  -3.701  -0.319  0.00  0.00    +0.000 OA
ATOM     15  C   UNL     1      -3.651  -5.019   0.029  0.00  0.00    +0.000 C 
ATOM     16  C   UNL     1      -4.622  -5.655   1.021  0.00  0.00    +0.000 C 
ATOM     17  O   UNL     1      -4.163  -6.902   1.499  0.00  0.00    +0.000 OA
ATOM     18  P   UNL     1      -3.580  -7.911   0.183  0.00  0.00    +0.000 P 
ATOM     19  O   UNL     1      -4.728  -8.845  -0.282  0.00  0.00    +0.000 OA
ATOM     20  O   UNL     1      -2.987  -7.034  -1.208  0.00  0.00    +0.000 OA
ATOM     21  C   UNL     1      -3.636  -5.791  -1.276  0.00  0.00    +0.000 C 
ATOM     22  C   UNL     1      -2.840  -4.808  -2.097  0.00  0.00    +0.000 C 
BRANCH  18  23
ATOM     23  O   UNL     1      -2.299  -8.924   0.768  0.00  0.00    +0.000 OA
ATOM     24  H   UNL     1      -1.548  -8.296   0.925  0.00  0.00    +0.000 HD
ENDBRANCH  18  23
BRANCH  22  25
ATOM     25  O   UNL     1      -2.928  -4.975  -3.492  0.00  0.00    +0.000 OA
ATOM     26  H   UNL     1      -3.314  -5.870  -3.684  0.00  0.00    +0.000 HD
ENDBRANCH  22  25
ENDBRANCH  10  13
BRANCH   9  27
ATOM     27 SE   UNL     1      -3.660  -0.565  -3.597  0.00  0.00    +0.000 Se
BRANCH  27  28
ATOM     28  C   UNL     1      -5.441  -0.597  -2.764  0.00  0.00    +0.000 C 
BRANCH  28  29
ATOM     29  C   UNL     1      -5.624   0.319  -1.585  0.00  0.00    +0.000 A 
ATOM     30  C   UNL     1      -6.520   1.406  -1.657  0.00  0.00    +0.000 A 
ATOM     31  C   UNL     1      -6.722   2.227  -0.544  0.00  0.00    +0.000 A 
ATOM     32  C   UNL     1      -6.037   1.972   0.647  0.00  0.00    +0.000 A 
ATOM     33  C   UNL     1      -5.150   0.897   0.726  0.00  0.00    +0.000 A 
ATOM     34  C   UNL     1      -4.945   0.073  -0.384  0.00  0.00    +0.000 A 
ENDBRANCH  28  29
ENDBRANCH  27  28
ENDBRANCH   9  27
TORSDOF 6
