REMARK  Name = C:\Users\Bellamkonda Sowmya\OneDrive\Desktop\LIGBIND AI\authml\authml\backend\results\ligand_1764954426385.pdb
REMARK  4 active torsions:
REMARK  status: ('A' for Active; 'I' for Inactive)
REMARK    1  A    between atoms: S_2  and  N_4
REMARK    2  A    between atoms: S_2  and  C_21
REMARK    3  A    between atoms: N_4  and  C_5
REMARK    4  A    between atoms: C_9  and  C_10
REMARK                            x       y       z     vdW  Elec       q    Type
REMARK                         _______ _______ _______ _____ _____    ______ ____
ROOT
ATOM      1  C   UNL     1       3.906  -2.261  -0.846  0.00  0.00    +0.000 A 
ATOM      2  C   UNL     1       5.001  -1.702  -1.529  0.00  0.00    +0.000 A 
ATOM      3  C   UNL     1       5.811  -2.483  -2.339  0.00  0.00    +0.000 A 
ATOM      4  C   UNL     1       5.553  -3.829  -2.471  0.00  0.00    +0.000 A 
ATOM      5  C   UNL     1       4.484  -4.351  -1.847  0.00  0.00    +0.000 A 
ATOM      6  C   UNL     1       3.943  -3.515  -1.286  0.00  0.00    +0.000 A 
ENDROOT
BRANCH   5   7
ATOM      7  C   UNL     1       4.064  -5.811  -1.883  0.00  0.00    +0.000 A 
ATOM      8  C   UNL     1       7.326  -8.801  -4.801  0.00  0.00    +0.000 A 
ATOM      9  N   UNL     1       6.517  -8.027  -3.972  0.00  0.00    +0.000 NA
ATOM     10  C   UNL     1       5.332  -8.555  -3.464  0.00  0.00    +0.000 A 
ATOM     11  C   UNL     1       4.767  -9.828  -3.656  0.00  0.00    +0.000 A 
ATOM     12  C   UNL     1       3.597 -10.195  -3.008  0.00  0.00    +0.000 A 
ATOM     13  C   UNL     1       2.983  -9.309  -2.151  0.00  0.00    +0.000 A 
ATOM     14  C   UNL     1       3.505  -8.081  -2.000  0.00  0.00    +0.000 A 
ATOM     15  C   UNL     1       4.429  -7.992  -2.667  0.00  0.00    +0.000 A 
ATOM     16  N   UNL     1       4.793  -6.728  -2.636  0.00  0.00    +0.000 NA
ENDBRANCH   5   7
BRANCH   1  17
ATOM     17  N   UNL     1       3.061  -1.619   0.172  0.00  0.00    +0.000 N 
ATOM     18  H   UNL     1       3.311  -1.685   1.158  0.00  0.00    +0.000 HD
BRANCH  17  20
ATOM     19  O   UNL     1       0.662  -1.681  -1.045  0.00  0.00    +0.000 OA
ATOM     20  S   UNL     1       1.618  -0.735  -0.313  0.00  0.00    +0.000 S 
ATOM     21  O   UNL     1       0.925  -0.170   0.928  0.00  0.00    +0.000 OA
BRANCH  20  22
ATOM     22  C   UNL     1       2.083   0.623  -1.416  0.00  0.00    +0.000 A 
ATOM     23  C   UNL     1       1.839   1.871  -2.340  0.00  0.00    +0.000 A 
ATOM     24  C   UNL     1       3.373   1.889  -2.179  0.00  0.00    +0.000 A 
ATOM     25  C   UNL     1       3.373   1.889  -2.179  0.00  0.00    +0.000 A 
ATOM     26  S   UNL     1       3.373   1.889  -2.179  0.00  0.00    +0.000 S 
ENDBRANCH  20  22
ENDBRANCH  17  20
ENDBRANCH   1  17
TORSDOF 4
