REMARK  Name = C:\DDRIVE\PROJECT\authml\backend\results\ligand_1764478955311.pdb
REMARK  3 active torsions:
REMARK  status: ('A' for Active; 'I' for Inactive)
REMARK    1  A    between atoms: N_1  and  N_2
REMARK    2  A    between atoms: N_5  and  C_6
REMARK    3  A    between atoms: C_6  and  C_7
REMARK                            x       y       z     vdW  Elec       q    Type
REMARK                         _______ _______ _______ _____ _____    ______ ____
ROOT
ATOM      1  N   UNL     1       0.030  -0.986   4.508  0.00  0.00    +0.000 N 
ATOM      2  C   UNL     1      -0.342  -1.364   3.242  0.00  0.00    +0.000 C 
ATOM      3  O   UNL     1      -0.573  -2.534   2.935  0.00  0.00    +0.000 OA
ATOM      4  N   UNL     1      -0.462  -0.392   2.300  0.00  0.00    +0.000 N 
ATOM      5  H   UNL     1       0.296  -0.032   4.721  0.00  0.00    +0.000 HD
ATOM      6  H   UNL     1      -0.745  -0.768   1.403  0.00  0.00    +0.000 HD
ENDROOT
BRANCH   1   7
ATOM      7  N   UNL     1       0.188  -1.964   5.521  0.00  0.00    +0.000 NA
ATOM      8  H   UNL     1      -0.595  -2.623   5.419  0.00  0.00    +0.000 HD
ATOM      9  H   UNL     1       0.999  -2.538   5.266  0.00  0.00    +0.000 HD
ENDBRANCH   1   7
BRANCH   4  10
ATOM     10  C   UNL     1      -0.281   1.047   2.365  0.00  0.00    +0.000 C 
BRANCH  10  11
ATOM     11  C   UNL     1      -1.546   1.790   2.004  0.00  0.00    +0.000 A 
ATOM     12  C   UNL     1      -2.674   1.694   2.832  0.00  0.00    +0.000 A 
ATOM     13  C   UNL     1      -3.841   2.403   2.538  0.00  0.00    +0.000 A 
ATOM     14  C   UNL     1      -3.898   3.217   1.411  0.00  0.00    +0.000 A 
ATOM     15  C   UNL     1      -2.787   3.320   0.574  0.00  0.00    +0.000 A 
ATOM     16  C   UNL     1      -1.619   2.612   0.869  0.00  0.00    +0.000 A 
ENDBRANCH  10  11
ENDBRANCH   4  10
TORSDOF 3
