REMARK  Name = C:\Users\Bellamkonda Sowmya\OneDrive\Documents\backend[1]\backend\results\ligand_1764365287563.pdb
REMARK  6 active torsions:
REMARK  status: ('A' for Active; 'I' for Inactive)
REMARK    1  A    between atoms: C_1  and  C_2
REMARK    2  A    between atoms: C_2  and  N_3
REMARK    3  A    between atoms: N_3  and  C_4
REMARK    4  A    between atoms: N_3  and  C_6
REMARK    5  A    between atoms: C_4  and  C_5
REMARK    6  A    between atoms: C_6  and  C_7
REMARK                            x       y       z     vdW  Elec       q    Type
REMARK                         _______ _______ _______ _____ _____    ______ ____
ROOT
ATOM      1  N   UNL     1       0.951  -0.113   2.407  0.00  0.00    +0.000 NA
ENDROOT
BRANCH   1   3
ATOM      2  C   UNL     1      -1.047  -0.517   0.956  0.00  0.00    +0.000 C 
ATOM      3  C   UNL     1       0.450  -0.714   1.161  0.00  0.00    +0.000 C 
ENDBRANCH   1   3
BRANCH   1   4
ATOM      4  C   UNL     1       0.346  -0.673   3.628  0.00  0.00    +0.000 C 
ATOM      5  C   UNL     1       0.525  -2.172   3.856  0.00  0.00    +0.000 C 
ENDBRANCH   1   4
BRANCH   1   6
ATOM      6  C   UNL     1       2.423  -0.119   2.485  0.00  0.00    +0.000 C 
ATOM      7  C   UNL     1       3.082   0.767   1.433  0.00  0.00    +0.000 C 
ENDBRANCH   1   6
TORSDOF 3
