REMARK  Name = C:\DDRIVE\PROJECT\RMPRF\authml\backend\results\ligand_1764577654674.pdb
REMARK  6 active torsions:
REMARK  status: ('A' for Active; 'I' for Inactive)
REMARK    1  A    between atoms: C_1  and  C_2
REMARK    2  A    between atoms: C_2  and  C_4
REMARK    3  A    between atoms: C_9  and  O_10
REMARK    4  A    between atoms: O_10  and  C_11
REMARK    5  A    between atoms: C_11  and  C_12
REMARK    6  A    between atoms: C_12  and  O_14
REMARK                            x       y       z     vdW  Elec       q    Type
REMARK                         _______ _______ _______ _____ _____    ______ ____
ROOT
ATOM      1  C   UNL     1       1.252   1.781  -2.050  0.00  0.00    +0.000 A 
ATOM      2  C   UNL     1       2.436   2.545  -2.108  0.00  0.00    +0.000 A 
ATOM      3  C   UNL     1       2.476   3.768  -2.781  0.00  0.00    +0.000 A 
ATOM      4  C   UNL     1       1.336   4.243  -3.414  0.00  0.00    +0.000 A 
ATOM      5  C   UNL     1       0.153   3.510  -3.344  0.00  0.00    +0.000 A 
ATOM      6  C   UNL     1       0.088   2.290  -2.649  0.00  0.00    +0.000 A 
ENDROOT
BRANCH   1   8
ATOM      7  C   UNL     1       2.385   0.141  -0.395  0.00  0.00    +0.000 C 
ATOM      8  C   UNL     1       1.357   0.409  -1.469  0.00  0.00    +0.000 C 
ATOM      9  O   UNL     1       0.657  -0.508  -1.886  0.00  0.00    +0.000 OA
ENDBRANCH   1   8
BRANCH   6  10
ATOM     10  O   UNL     1      -1.148   1.718  -2.749  0.00  0.00    +0.000 OA
BRANCH  10  11
ATOM     11  C   UNL     1      -1.714   1.082  -1.609  0.00  0.00    +0.000 C 
BRANCH  11  12
ATOM     12  C   UNL     1      -2.130  -0.351  -1.897  0.00  0.00    +0.000 C 
ATOM     13  O   UNL     1      -2.555  -1.142  -1.065  0.00  0.00    +0.000 OA
BRANCH  12  14
ATOM     14  O   UNL     1      -2.026  -0.717  -3.193  0.00  0.00    +0.000 OA
ATOM     15  H   UNL     1      -2.134  -1.687  -3.180  0.00  0.00    +0.000 HD
ENDBRANCH  12  14
ENDBRANCH  11  12
ENDBRANCH  10  11
ENDBRANCH   6  10
TORSDOF 5
