REMARK  Name = C:\Users\Bellamkonda Sowmya\OneDrive\Desktop\LIGBIND AI\authml\authml\backend\results\ligand_1765120879467.pdb
REMARK  6 active torsions:
REMARK  status: ('A' for Active; 'I' for Inactive)
REMARK    1  A    between atoms: C_1  and  C_2
REMARK    2  A    between atoms: C_2  and  N_3
REMARK    3  A    between atoms: N_3  and  C_4
REMARK    4  A    between atoms: N_3  and  C_6
REMARK    5  A    between atoms: C_4  and  C_5
REMARK    6  A    between atoms: C_6  and  C_7
REMARK                            x       y       z     vdW  Elec       q    Type
REMARK                         _______ _______ _______ _____ _____    ______ ____
ROOT
ATOM      1  N   UNL     1       0.980  -0.590   2.401  0.00  0.00    +0.000 NA
ENDROOT
BRANCH   1   3
ATOM      2  C   UNL     1      -1.018  -0.714   0.910  0.00  0.00    +0.000 C 
ATOM      3  C   UNL     1       0.478  -0.972   1.076  0.00  0.00    +0.000 C 
ENDBRANCH   1   3
BRANCH   1   4
ATOM      4  C   UNL     1       0.378  -1.350   3.512  0.00  0.00    +0.000 C 
ATOM      5  C   UNL     1       0.532  -2.869   3.472  0.00  0.00    +0.000 C 
ENDBRANCH   1   4
BRANCH   1   6
ATOM      6  C   UNL     1       2.449  -0.599   2.482  0.00  0.00    +0.000 C 
ATOM      7  C   UNL     1       3.106   0.456   1.593  0.00  0.00    +0.000 C 
ENDBRANCH   1   6
TORSDOF 3
