REMARK  Name = C:\DDRIVE\PROJECT\RMPRF\authml\backend\results\ligand_1764561530061.pdb
REMARK  3 active torsions:
REMARK  status: ('A' for Active; 'I' for Inactive)
REMARK    1  A    between atoms: C_1  and  N_2
REMARK    2  A    between atoms: C_4  and  C_5
REMARK    3  A    between atoms: C_5  and  O_7
REMARK                            x       y       z     vdW  Elec       q    Type
REMARK                         _______ _______ _______ _____ _____    ______ ____
ROOT
ATOM      1  C   UNL     1    7178032208987116091000397246903500078211114274017038578509205501146356089663626120498426836103785079030856012574490304213708671793648530834226920714867268543393463315639452066054297009730885681294200378450869803134635914155660007871187353216796172746752.0003040401772876915937114190748731345388752349468224318936076202094516687535685699374724856602123501269347288353000291408901903135763105701744748362473252498335172248379372065815265280.000   0.000  0.00  0.00    +0.000 C 
ATOM      2  N   UNL     1      -0.0002383367619443439358628085534435951484985966335537686153454449311119641711161195787986102308560524737376490881441551405881409134860026803105922878818997196323810020847303801662603264.00021075415733475734486406312725713429771619646005659520134699792240155572584292373955280949640681173021214760052701431437665398153732623791855040261704447120136705806724213808608688345377095135874726362319442428297216.000  0.00  0.00    +0.000 N 
ATOM      3  C   UNL     1       0.000   0.000   1.000  0.00  0.00    +0.000 C 
ATOM      4  C   UNL     1       0.000   0.000   0.000  0.00  0.00    +0.000 C 
ATOM      5  C   UNL     1       1.000  -0.000   0.000  0.00  0.00    +0.000 C 
ATOM      6  C   UNL     1       0.183  -1.300   0.088  0.00  0.00    +0.000 C 
ATOM      7  O   UNL     1       1.513  -0.002  -0.032  0.00  0.00    +0.000 OA
ENDROOT
BRANCH   4   8
ATOM      8  C   UNL     1      -0.621  -1.241  -0.621  0.00  0.00    +0.000 C 
ATOM      9  O   UNL     1      -0.248  -1.697  -1.747  0.00  0.00    +0.000 OA
BRANCH   8  10
ATOM     10  O   UNL     1      -1.672  -1.878   0.090  0.00  0.00    +0.000 OA
ATOM     11  H   UNL     1      -2.120  -2.684  -0.296  0.00  0.00    +0.000 HD
ENDBRANCH   8  10
ENDBRANCH   4   8
TORSDOF 2
