REMARK  Name = C:\Users\Bellamkonda Sowmya\OneDrive\Desktop\2nd yr notes\ps1\authml\authml\backend\results\ligand_1764933896612.pdb
REMARK  4 active torsions:
REMARK  status: ('A' for Active; 'I' for Inactive)
REMARK    1  A    between atoms: S_2  and  N_4
REMARK    2  A    between atoms: S_2  and  C_21
REMARK    3  A    between atoms: N_4  and  C_5
REMARK    4  A    between atoms: C_9  and  C_10
REMARK                            x       y       z     vdW  Elec       q    Type
REMARK                         _______ _______ _______ _____ _____    ______ ____
ROOT
ATOM      1  C   UNL     1       4.019  -1.5955339477381487982688755884710412221725699038958101859156711419751228326921260042021932729069548505796744137550662749452893863650173740560045246019117464976093562384102977588196722030482020495068758016.000  0.00  0.00    +0.000 A 
ATOM      2  C   UNL     1       5.118  -2.0355339477381487982688755884710412221725699038958101859156711419751228326921260042021932729069548505796744137550662749452893863650173740560045246019117464976093562384102977588196722030482020495068758016.000  0.00  0.00    +0.000 A 
ATOM      3  C   UNL     1       5.842  -3.1575339477381487982688755884710412221725699038958101859156711419751228326921260042021932729069548505796744137550662749452893863650173740560045246019117464976093562384102977588196722030482020495068758016.000  0.00  0.00    +0.000 A 
ATOM      4  C   UNL     1       5.494  -3.8465339477381487982688755884710412221725699038958101859156711419751228326921260042021932729069548505796744137550662749452893863650173740560045246019117464976093562384102977588196722030482020495068758016.000  0.00  0.00    +0.000 A 
ATOM      5  C   UNL     1       4.421  -3.4455339477381487982688755884710412221725699038958101859156711419751228326921260042021932729069548505796744137550662749452893863650173740560045246019117464976093562384102977588196722030482020495068758016.000  0.00  0.00    +0.000 A 
ATOM      6  C   UNL     1       3.958  -2.5415339477381487982688755884710412221725699038958101859156711419751228326921260042021932729069548505796744137550662749452893863650173740560045246019117464976093562384102977588196722030482020495068758016.000  0.00  0.00    +0.000 A 
ENDROOT
BRANCH   5   7
ATOM      7  C   UNL     1       3.907  -4.0875339477381487982688755884710412221725699038958101859156711419751228326921260042021932729069548505796744137550662749452893863650173740560045246019117464976093562384102977588196722030482020495068758016.000  0.00  0.00    +0.000 A 
ATOM      8  C   UNL     1       6.785  -8.2925339477381487982688755884710412221725699038958101859156711419751228326921260042021932729069548505796744137550662749452893863650173740560045246019117464976093562384102977588196722030482020495068758016.000  0.00  0.00    +0.000 A 
ATOM      9  N   UNL     1       6.126  -7.1245339477381487982688755884710412221725699038958101859156711419751228326921260042021932729069548505796744137550662749452893863650173740560045246019117464976093562384102977588196722030482020495068758016.000  0.00  0.00    +0.000 NA
ATOM     10  C   UNL     1       4.874  -6.8295339477381487982688755884710412221725699038958101859156711419751228326921260042021932729069548505796744137550662749452893863650173740560045246019117464976093562384102977588196722030482020495068758016.000  0.00  0.00    +0.000 A 
ATOM     11  C   UNL     1       4.101  -7.5605339477381487982688755884710412221725699038958101859156711419751228326921260042021932729069548505796744137550662749452893863650173740560045246019117464976093562384102977588196722030482020495068758016.000  0.00  0.00    +0.000 A 
ATOM     12  C   UNL     1       2.892  -7.0665339477381487982688755884710412221725699038958101859156711419751228326921260042021932729069548505796744137550662749452893863650173740560045246019117464976093562384102977588196722030482020495068758016.000  0.00  0.00    +0.000 A 
ATOM     13  C   UNL     1       2.443  -5.8375339477381487982688755884710412221725699038958101859156711419751228326921260042021932729069548505796744137550662749452893863650173740560045246019117464976093562384102977588196722030482020495068758016.000  0.00  0.00    +0.000 A 
ATOM     14  C   UNL     1       3.166  -5.1605339477381487982688755884710412221725699038958101859156711419751228326921260042021932729069548505796744137550662749452893863650173740560045246019117464976093562384102977588196722030482020495068758016.000  0.00  0.00    +0.000 A 
ATOM     15  C   UNL     1       4.086  -5.7815339477381487982688755884710412221725699038958101859156711419751228326921260042021932729069548505796744137550662749452893863650173740560045246019117464976093562384102977588196722030482020495068758016.000  0.00  0.00    +0.000 A 
ATOM     16  N   UNL     1       4.530  -5.2255339477381487982688755884710412221725699038958101859156711419751228326921260042021932729069548505796744137550662749452893863650173740560045246019117464976093562384102977588196722030482020495068758016.000  0.00  0.00    +0.000 NA
ENDBRANCH   5   7
BRANCH   1  17
ATOM     17  N   UNL     1       3.174  -0.4095339477381487982688755884710412221725699038958101859156711419751228326921260042021932729069548505796744137550662749452893863650173740560045246019117464976093562384102977588196722030482020495068758016.000  0.00  0.00    +0.000 N 
ATOM     18  H   UNL     1       2.337  -0.4705339477381487982688755884710412221725699038958101859156711419751228326921260042021932729069548505796744137550662749452893863650173740560045246019117464976093562384102977588196722030482020495068758016.000  0.00  0.00    +0.000 HD
BRANCH  17  20
ATOM     19  O   UNL     1       4.985   1.5605339477381487982688755884710412221725699038958101859156711419751228326921260042021932729069548505796744137550662749452893863650173740560045246019117464976093562384102977588196722030482020495068758016.000  0.00  0.00    +0.000 OA
ATOM     20  S   UNL     1       3.605   1.1175339477381487982688755884710412221725699038958101859156711419751228326921260042021932729069548505796744137550662749452893863650173740560045246019117464976093562384102977588196722030482020495068758016.000  0.00  0.00    +0.000 S 
ATOM     21  O   UNL     1       2.568   2.1815339477381487982688755884710412221725699038958101859156711419751228326921260042021932729069548505796744137550662749452893863650173740560045246019117464976093562384102977588196722030482020495068758016.000  0.00  0.00    +0.000 OA
BRANCH  20  22
ATOM     22  C   UNL     1       3.642   0.9035339477381487982688755884710412221725699038958101859156711419751228326921260042021932729069548505796744137550662749452893863650173740560045246019117464976093562384102977588196722030482020495068758016.000  0.00  0.00    +0.000 A 
ATOM     23  C   UNL     1       3.093   1.3075339477381487982688755884710412221725699038958101859156711419751228326921260042021932729069548505796744137550662749452893863650173740560045246019117464976093562384102977588196722030482020495068758016.000  0.00  0.00    +0.000 A 
ATOM     24  C   UNL     1       3.971   0.0855339477381487982688755884710412221725699038958101859156711419751228326921260042021932729069548505796744137550662749452893863650173740560045246019117464976093562384102977588196722030482020495068758016.000  0.00  0.00    +0.000 A 
ATOM     25  C   UNL     1    83665125942009357614796718184774392874791978591181475037309683943537754645751171362127606131382114585042663346094381990930155655216623798583389301700278714850991084621603202868732830738358561050460160.00049784178983340936188287479741684747086411753245758165379281628781221952160309646842661695279808061437586097711843834250165059362245702238211795328559538553729123969973227599358585355755028151116234752.000   0.000  0.00  0.00    +0.000 A 
ATOM     26  S   UNL     1       3.971   0.0855339477381487982688755884710412221725699038958101859156711419751228326921260042021932729069548505796744137550662749452893863650173740560045246019117464976093562384102977588196722030482020495068758016.000  0.00  0.00    +0.000 S 
ENDBRANCH  20  22
ENDBRANCH  17  20
ENDBRANCH   1  17
TORSDOF 4
