REMARK  Name = C:\Users\Bellamkonda Sowmya\OneDrive\Desktop\2nd yr notes\ps1\authml\authml\backend\results\ligand_1764663233630.pdb
REMARK  6 active torsions:
REMARK  status: ('A' for Active; 'I' for Inactive)
REMARK    1  A    between atoms: C_1  and  C_2
REMARK    2  A    between atoms: C_2  and  N_3
REMARK    3  A    between atoms: N_3  and  C_4
REMARK    4  A    between atoms: N_3  and  C_6
REMARK    5  A    between atoms: C_4  and  C_5
REMARK    6  A    between atoms: C_6  and  C_7
REMARK                            x       y       z     vdW  Elec       q    Type
REMARK                         _______ _______ _______ _____ _____    ______ ____
ROOT
ATOM      1  N   UNL     1       1.070   1.348  -2.062  0.00  0.00    +0.000 NA
ENDROOT
BRANCH   1   3
ATOM      2  C   UNL     1      -0.922   0.890  -0.619  0.00  0.00    +0.000 C 
ATOM      3  C   UNL     1       0.574   1.181  -0.687  0.00  0.00    +0.000 C 
ENDBRANCH   1   3
BRANCH   1   4
ATOM      4  C   UNL     1       0.461   2.478  -2.786  0.00  0.00    +0.000 C 
ATOM      5  C   UNL     1       0.636   3.863  -2.167  0.00  0.00    +0.000 C 
ENDBRANCH   1   4
BRANCH   1   6
ATOM      6  C   UNL     1       2.540   1.397  -2.133  0.00  0.00    +0.000 C 
ATOM      7  C   UNL     1       3.200   0.078  -1.734  0.00  0.00    +0.000 C 
ENDBRANCH   1   6
TORSDOF 3
