REMARK  Name = C:\DDRIVE\PROJECT\authml1\authml\backend\results\ligand_1764479608977.pdb
REMARK  6 active torsions:
REMARK  status: ('A' for Active; 'I' for Inactive)
REMARK    1  A    between atoms: C_1  and  C_2
REMARK    2  A    between atoms: C_2  and  N_3
REMARK    3  A    between atoms: N_3  and  C_4
REMARK    4  A    between atoms: N_3  and  C_6
REMARK    5  A    between atoms: C_4  and  C_5
REMARK    6  A    between atoms: C_6  and  C_7
REMARK                            x       y       z     vdW  Elec       q    Type
REMARK                         _______ _______ _______ _____ _____    ______ ____
ROOT
ATOM      1  N   UNL     1       1.075   2.369  -0.194  0.00  0.00    +0.000 NA
ENDROOT
BRANCH   1   3
ATOM      2  C   UNL     1      -0.923   0.995   0.426  0.00  0.00    +0.000 C 
ATOM      3  C   UNL     1       0.576   1.233   0.593  0.00  0.00    +0.000 C 
ENDBRANCH   1   3
BRANCH   1   4
ATOM      4  C   UNL     1       0.469   3.664   0.171  0.00  0.00    +0.000 C 
ATOM      5  C   UNL     1       0.643   4.118   1.618  0.00  0.00    +0.000 C 
ENDBRANCH   1   4
BRANCH   1   6
ATOM      6  C   UNL     1       2.543   2.451  -0.203  0.00  0.00    +0.000 C 
ATOM      7  C   UNL     1       3.202   1.278  -0.925  0.00  0.00    +0.000 C 
ENDBRANCH   1   6
TORSDOF 3
