REMARK  Name = C:\Users\Bellamkonda Sowmya\OneDrive\Documents\backend[1]\backend\results\ligand_1764364478892.pdb
REMARK  6 active torsions:
REMARK  status: ('A' for Active; 'I' for Inactive)
REMARK    1  A    between atoms: C_1  and  C_2
REMARK    2  A    between atoms: C_2  and  N_3
REMARK    3  A    between atoms: N_3  and  C_4
REMARK    4  A    between atoms: N_3  and  C_6
REMARK    5  A    between atoms: C_4  and  C_5
REMARK    6  A    between atoms: C_6  and  C_7
REMARK                            x       y       z     vdW  Elec       q    Type
REMARK                         _______ _______ _______ _____ _____    ______ ____
ROOT
ATOM      1  N   UNL     1       0.975  -1.769   1.557  0.00  0.00    +0.000 NA
ENDROOT
BRANCH   1   3
ATOM      2  C   UNL     1      -1.019  -0.983   0.268  0.00  0.00    +0.000 C 
ATOM      3  C   UNL     1       0.481  -1.275   0.261  0.00  0.00    +0.000 C 
ENDBRANCH   1   3
BRANCH   1   4
ATOM      4  C   UNL     1       0.366  -3.041   1.989  0.00  0.00    +0.000 C 
ATOM      5  C   UNL     1       0.538  -4.237   1.053  0.00  0.00    +0.000 C 
ENDBRANCH   1   4
BRANCH   1   6
ATOM      6  C   UNL     1       2.444  -1.835   1.611  0.00  0.00    +0.000 C 
ATOM      7  C   UNL     1       3.105  -0.459   1.543  0.00  0.00    +0.000 C 
ENDBRANCH   1   6
TORSDOF 3
