REMARK  Name = C:\Users\Bellamkonda Sowmya\OneDrive\Desktop\LIGBIND AI\authml\authml\backend\results\ligand_1766911764519.pdb
REMARK  7 active torsions:
REMARK  status: ('A' for Active; 'I' for Inactive)
REMARK    1  A    between atoms: C_2  and  C_4
REMARK    2  A    between atoms: C_11  and  C_12
REMARK    3  A    between atoms: C_15  and  O_16
REMARK    4  A    between atoms: N_19  and  C_20
REMARK    5  A    between atoms: C_20  and  C_21
REMARK    6  A    between atoms: C_21  and  C_22
REMARK    7  A    between atoms: C_22  and  O_23
REMARK                            x       y       z     vdW  Elec       q    Type
REMARK                         _______ _______ _______ _____ _____    ______ ____
ROOT
ATOM      1  C   UNL     1       0.923   2.370  -0.521  0.00  0.00    +0.000 A 
ATOM      2  C   UNL     1       2.057   2.308  -1.335  0.00  0.00    +0.000 A 
ATOM      3  C   UNL     1       2.801   3.454  -1.632  0.00  0.00    +0.000 A 
ATOM      4  C   UNL     1       2.356   4.678  -1.106  0.00  0.00    +0.000 A 
ATOM      5  C   UNL     1       1.222   4.763  -0.318  0.00  0.00    +0.000 A 
ATOM      6  C   UNL     1       0.497   3.601   0.006  0.00  0.00    +0.000 A 
ATOM      7  N   UNL     1       1.011   6.057   0.073  0.00  0.00    +0.000 NA
ATOM      8  C   UNL     1       2.031   6.779  -0.374  0.00  0.00    +0.000 A 
ATOM      9  N   UNL     1       2.852   5.977  -1.162  0.00  0.00    +0.000 N 
ENDROOT
BRANCH   8  10
ATOM     10  C   UNL     1       2.274   8.168   0.222  0.00  0.00    +0.000 C 
ATOM     11  C   UNL     1       2.752   9.321  -0.679  0.00  0.00    +0.000 C 
ATOM     12  C   UNL     1       3.320  10.547   0.081  0.00  0.00    +0.000 C 
ATOM     13  C   UNL     1       4.123  10.223   1.352  0.00  0.00    +0.000 C 
ATOM     14  C   UNL     1       4.404   8.735   1.472  0.00  0.00    +0.000 C 
ATOM     15  C   UNL     1       3.073   8.011   1.530  0.00  0.00    +0.000 C 
BRANCH  13  16
ATOM     16  O   UNL     1       5.351  10.930   1.375  0.00  0.00    +0.000 OA
ATOM     17  H   UNL     1       5.753  10.792   2.254  0.00  0.00    +0.000 HD
ENDBRANCH  13  16
ENDBRANCH   8  10
BRANCH   1  19
ATOM     18  N   UNL     1      -1.082   1.146   0.144  0.00  0.00    +0.000 N 
ATOM     19  C   UNL     1       0.234   1.088  -0.212  0.00  0.00    +0.000 C 
ATOM     20  O   UNL     1       0.810   0.008  -0.304  0.00  0.00    +0.000 OA
ATOM     21  H   UNL     1      -1.558   0.258   0.236  0.00  0.00    +0.000 HD
ATOM     22  H   UNL     1      -1.646   1.973   0.008  0.00  0.00    +0.000 HD
ENDBRANCH   1  19
BRANCH   9  23
ATOM     23  C   UNL     1       4.105   6.292  -1.822  0.00  0.00    +0.000 C 
BRANCH  23  24
ATOM     24  C   UNL     1       4.154   6.010  -3.331  0.00  0.00    +0.000 C 
BRANCH  24  25
ATOM     25  C   UNL     1       3.090   6.731  -4.145  0.00  0.00    +0.000 C 
BRANCH  25  26
ATOM     26  O   UNL     1       3.180   6.320  -5.505  0.00  0.00    +0.000 OA
ATOM     27  H   UNL     1       4.068   6.539  -5.835  0.00  0.00    +0.000 HD
ENDBRANCH  25  26
ENDBRANCH  24  25
ENDBRANCH  23  24
ENDBRANCH   9  23
TORSDOF 7
