REMARK  Name = C:\DDRIVE\PROJECT\rmpr\authml\backend\results\ligand_1764487372018.pdb
REMARK  6 active torsions:
REMARK  status: ('A' for Active; 'I' for Inactive)
REMARK    1  A    between atoms: C_1  and  C_2
REMARK    2  A    between atoms: C_2  and  N_3
REMARK    3  A    between atoms: N_3  and  C_4
REMARK    4  A    between atoms: N_3  and  C_6
REMARK    5  A    between atoms: C_4  and  C_5
REMARK    6  A    between atoms: C_6  and  C_7
REMARK                            x       y       z     vdW  Elec       q    Type
REMARK                         _______ _______ _______ _____ _____    ______ ____
ROOT
ATOM      1  N   UNL     1       1.111  -0.707   2.315  0.00  0.00    +0.000 NA
ENDROOT
BRANCH   1   3
ATOM      2  C   UNL     1      -0.890  -0.677   0.811  0.00  0.00    +0.000 C 
ATOM      3  C   UNL     1       0.609  -0.930   0.951  0.00  0.00    +0.000 C 
ENDBRANCH   1   3
BRANCH   1   4
ATOM      4  C   UNL     1       0.504  -1.587   3.330  0.00  0.00    +0.000 C 
ATOM      5  C   UNL     1       0.682  -3.088   3.129  0.00  0.00    +0.000 C 
ENDBRANCH   1   4
BRANCH   1   6
ATOM      6  C   UNL     1       2.580  -0.740   2.388  0.00  0.00    +0.000 C 
ATOM      7  C   UNL     1       3.240   0.415   1.637  0.00  0.00    +0.000 C 
ENDBRANCH   1   6
TORSDOF 3
