REMARK  Name = C:\DDRIVE\PROJECT\rmpr\authml\backend\results\ligand_1764517713025.pdb
REMARK  6 active torsions:
REMARK  status: ('A' for Active; 'I' for Inactive)
REMARK    1  A    between atoms: C_1  and  C_2
REMARK    2  A    between atoms: C_2  and  N_3
REMARK    3  A    between atoms: N_3  and  C_4
REMARK    4  A    between atoms: N_3  and  C_6
REMARK    5  A    between atoms: C_4  and  C_5
REMARK    6  A    between atoms: C_6  and  C_7
REMARK                            x       y       z     vdW  Elec       q    Type
REMARK                         _______ _______ _______ _____ _____    ______ ____
ROOT
ATOM      1  N   UNL     1       1.105  -2.485   0.386  0.00  0.00    +0.000 NA
ENDROOT
BRANCH   1   3
ATOM      2  C   UNL     1      -0.898  -1.142  -0.274  0.00  0.00    +0.000 C 
ATOM      3  C   UNL     1       0.601  -1.377  -0.440  0.00  0.00    +0.000 C 
ENDBRANCH   1   3
BRANCH   1   4
ATOM      4  C   UNL     1       0.503  -3.793   0.067  0.00  0.00    +0.000 C 
ATOM      5  C   UNL     1       0.673  -4.299  -1.363  0.00  0.00    +0.000 C 
ENDBRANCH   1   4
BRANCH   1   6
ATOM      6  C   UNL     1       2.575  -2.563   0.402  0.00  0.00    +0.000 C 
ATOM      7  C   UNL     1       3.227  -1.354   1.075  0.00  0.00    +0.000 C 
ENDBRANCH   1   6
TORSDOF 3
