MODEL        1
REMARK  Name = C:\DDRIVE\PROJECT\authml\backend\results\ligand_1764478100532.pdb
REMARK  6 active torsions:
REMARK  status: ('A' for Active; 'I' for Inactive)
REMARK    1  A    between atoms: C_1  and  C_2
REMARK    2  A    between atoms: C_2  and  N_3
REMARK    3  A    between atoms: N_3  and  C_4
REMARK    4  A    between atoms: N_3  and  C_6
REMARK    5  A    between atoms: C_4  and  C_5
REMARK    6  A    between atoms: C_6  and  C_7
REMARK                            x       y       z     vdW  Elec       q    Type
REMARK                         _______ _______ _______ _____ _____    ______ ____
ROOT
ATOM      1  N   UNL     1       1.138  -2.264   0.973  0.00  0.00    +0.000 NA
ENDROOT
BRANCH   1   3
ATOM      2  C   UNL     1      -0.856  -1.114  -0.010  0.00  0.00    +0.000 C 
ATOM      3  C   UNL     1       0.642  -1.396  -0.106  0.00  0.00    +0.000 C 
ENDBRANCH   1   3
BRANCH   1   4
ATOM      4  C   UNL     1       0.530  -3.606   0.992  0.00  0.00    +0.000 C 
ATOM      5  C   UNL     1       0.703  -4.455  -0.265  0.00  0.00    +0.000 C 
ENDBRANCH   1   4
BRANCH   1   6
ATOM      6  C   UNL     1       2.608  -2.341   1.004  0.00  0.00    +0.000 C 
ATOM      7  C   UNL     1       3.267  -1.011   1.360  0.00  0.00    +0.000 C 
ENDBRANCH   1   6
TORSDOF 3
ENDMDL
