REMARK  Name = C:\DDRIVE\PROJECT\RMPRF\authml\backend\results\ligand_1764578730353.pdb
REMARK  5 active torsions:
REMARK  status: ('A' for Active; 'I' for Inactive)
REMARK    1  A    between atoms: C_2  and  O_3
REMARK    2  A    between atoms: C_2  and  C_4
REMARK    3  A    between atoms: C_4  and  O_5
REMARK    4  A    between atoms: O_5  and  C_6
REMARK    5  A    between atoms: C_9  and  C_10
REMARK                            x       y       z     vdW  Elec       q    Type
REMARK                         _______ _______ _______ _____ _____    ______ ____
ROOT
ATOM      1  C   UNL     1       2.961   1.013   2.802  0.00  0.00    +0.000 A 
ATOM      2  C   UNL     1       2.741   2.242   2.155  0.00  0.00    +0.000 A 
ATOM      3  C   UNL     1       3.085   3.440   2.763  0.00  0.00    +0.000 A 
ATOM      4  C   UNL     1       3.638   3.434   4.024  0.00  0.00    +0.000 A 
ATOM      5  C   UNL     1       3.882   2.256   4.622  0.00  0.00    +0.000 A 
ATOM      6  C   UNL     1       3.566   1.414   3.916  0.00  0.00    +0.000 A 
ENDROOT
BRANCH   4   7
ATOM      7  C   UNL     1       3.968   4.739   4.729  0.00  0.00    +0.000 C 
ATOM      8  C   UNL     1       3.262   3.916   4.499  0.00  0.00    +0.000 C 
ATOM      9  C   UNL     1       3.262   3.916   4.499  0.00  0.00    +0.000 C 
ATOM     10  C   UNL     1       3.262   3.916   4.499  0.00  0.00    +0.000 C 
ATOM     11  C   UNL     1       3.262   3.916   4.499  0.00  0.00    +0.000 C 
ATOM     12  C   UNL     1       3.262   3.916   4.499  0.00  0.00    +0.000 C 
ENDBRANCH   4   7
BRANCH   1  13
ATOM     13  O   UNL     1       2.712  -0.332   2.419  0.00  0.00    +0.000 OA
BRANCH  13  14
ATOM     14  C   UNL     1       2.750  -0.699   1.048  0.00  0.00    +0.000 C 
BRANCH  14  16
ATOM     15  O   UNL     1       2.431  -2.725  -0.237  0.00  0.00    +0.000 OA
ATOM     16  C   UNL     1       2.450  -2.183   0.912  0.00  0.00    +0.000 C 
BRANCH  16  17
ATOM     17  O   UNL     1       2.191  -2.964   2.070  0.00  0.00    +0.000 OA
ATOM     18  H   UNL     1       2.206  -2.537   2.974  0.00  0.00    +0.000 HD
ENDBRANCH  16  17
ENDBRANCH  14  16
ENDBRANCH  13  14
ENDBRANCH   1  13
TORSDOF 5
