REMARK  Name = C:\DDRIVE\PROJECT\rmpr\authml\backend\results\ligand_1764508811630.pdb
REMARK  12 active torsions:
REMARK  status: ('A' for Active; 'I' for Inactive)
REMARK    1  A    between atoms: C_1  and  C_2
REMARK    2  A    between atoms: C_2  and  O_3
REMARK    3  A    between atoms: O_3  and  C_4
REMARK    4  A    between atoms: C_4  and  C_6
REMARK    5  A    between atoms: C_6  and  N_7
REMARK    6  A    between atoms: N_7  and  C_8
REMARK    7  A    between atoms: C_8  and  C_9
REMARK    8  A    between atoms: C_9  and  C_10
REMARK    9  A    between atoms: C_10  and  C_11
REMARK   10  A    between atoms: C_11  and  C_12
REMARK   11  A    between atoms: C_12  and  S_13
REMARK   12  A    between atoms: S_13  and  C_14
REMARK                            x       y       z     vdW  Elec       q    Type
REMARK                         _______ _______ _______ _____ _____    ______ ____
ROOT
ATOM      1  C   UNL     1       4.917  -6.510  -0.871  0.00  0.00    +0.000 C 
ENDROOT
BRANCH   1   2
ATOM      2  C   UNL     1       4.417  -6.282  -2.318  0.00  0.00    +0.000 C 
BRANCH   2   3
ATOM      3  C   UNL     1       4.481  -4.781  -2.690  0.00  0.00    +0.000 C 
BRANCH   3   4
ATOM      4  C   UNL     1       3.982  -4.441  -4.111  0.00  0.00    +0.000 C 
BRANCH   4   5
ATOM      5  C   UNL     1       4.044  -2.919  -4.365  0.00  0.00    +0.000 C 
BRANCH   5   6
ATOM      6  N   UNL     1       3.631  -2.558  -5.726  0.00  0.00    +0.000 NA
ATOM      7  H   UNL     1       2.670  -2.858  -5.905  0.00  0.00    +0.000 HD
BRANCH   6   8
ATOM      8  C   UNL     1       3.708  -1.091  -5.929  0.00  0.00    +0.000 C 
BRANCH   8   9
ATOM      9  C   UNL     1       3.233  -0.694  -7.330  0.00  0.00    +0.000 C 
ATOM     10  O   UNL     1       2.346  -1.258  -7.959  0.00  0.00    +0.000 OA
BRANCH   9  11
ATOM     11  O   UNL     1       3.892   0.431  -7.744  0.00  0.00    +0.000 OA
BRANCH  11  13
ATOM     12  C   UNL     1       4.207   0.169 -10.140  0.00  0.00    +0.000 C 
ATOM     13  C   UNL     1       3.515   0.944  -9.033  0.00  0.00    +0.000 C 
ENDBRANCH  11  13
ENDBRANCH   9  11
ENDBRANCH   8   9
ENDBRANCH   6   8
ENDBRANCH   5   6
ENDBRANCH   4   5
ENDBRANCH   3   4
ENDBRANCH   2   3
ENDBRANCH   1   2
BRANCH   1  14
ATOM     14  S   UNL     1       4.816  -8.277  -0.300  0.00  0.00    +0.000 S 
BRANCH  14  15
ATOM     15  C   UNL     1       5.442  -8.191   1.392  0.00  0.00    +0.000 A 
ATOM     16  C   UNL     1       6.152  -9.280   1.921  0.00  0.00    +0.000 A 
ATOM     17  N   UNL     1       6.446 -10.553   1.511  0.00  0.00    +0.000 N 
ATOM     18  C   UNL     1       7.048 -11.192   2.568  0.00  0.00    +0.000 A 
ATOM     19  N   UNL     1       7.282 -10.370   3.569  0.00  0.00    +0.000 NA
ATOM     20  C   UNL     1       6.703  -9.194   3.187  0.00  0.00    +0.000 A 
ATOM     21  N   UNL     1       6.619  -8.103   3.964  0.00  0.00    +0.000 NA
ATOM     22  C   UNL     1       5.831  -7.124   3.487  0.00  0.00    +0.000 A 
ATOM     23  N   UNL     1       5.195  -7.130   2.265  0.00  0.00    +0.000 N 
ATOM     24  O   UNL     1       4.381  -6.191   2.002  0.00  0.00    +0.000 OA
ATOM     25  H   UNL     1       6.160 -10.992   0.650  0.00  0.00    +0.000 HD
ENDBRANCH  14  15
ENDBRANCH   1  14
TORSDOF 11
